MODEL 1
REMARK VINA RESULT:     -12.5      0.000      0.000
REMARK  0 active torsions:
REMARK  status: ('A' for Active; 'I' for Inactive)
REMARK       I    between atoms: C6_2  and  C5_74 
REMARK       I    between atoms: C1_3  and  O4_24 
REMARK       I    between atoms: O6_4  and  C6_26 
REMARK       I    between atoms: C5_5  and  C6_12 
REMARK       I    between atoms: C4_6  and  O4_22 
REMARK       I    between atoms: C6_8  and  C5_90 
REMARK       I    between atoms: C6_8  and  O6_83 
REMARK       I    between atoms: O3_11  and  C3_60 
REMARK       I    between atoms: O3_11  and  C1_29 
REMARK       I    between atoms: C5_13  and  C6_18 
REMARK       I    between atoms: O4_14  and  C4_88 
REMARK       I    between atoms: O4_14  and  S_15 
REMARK       I    between atoms: C6_16  and  C5_28 
REMARK       I    between atoms: S_17  and  O4_22 
REMARK       I    between atoms: C6_18  and  O6_66 
REMARK       I    between atoms: O4_20  and  C4_46 
REMARK       I    between atoms: O4_20  and  C1_61 
REMARK       I    between atoms: O4_21  and  C4_54 
REMARK       I    between atoms: O4_21  and  S_40 
REMARK       I    between atoms: O4_24  and  C4_35 
REMARK       I    between atoms: O3_25  and  C3_48 
REMARK       I    between atoms: C6_26  and  C5_50 
REMARK       I    between atoms: C2_27  and  O2_55 
REMARK       I    between atoms: O3_31  and  C3_37 
REMARK       I    between atoms: C2_32  and  N_72 
REMARK       I    between atoms: C7_33  and  C8_39 
REMARK       I    between atoms: C7_33  and  N_52 
REMARK       I    between atoms: C1_34  and  O4_86 
REMARK       I    between atoms: C3_36  and  O3_87 
REMARK       I    between atoms: C2_47  and  O2_85 
REMARK       I    between atoms: N_52  and  C2_71 
REMARK       I    between atoms: C3_53  and  O3_81 
REMARK       I    between atoms: C1_56  and  O3_81 
REMARK       I    between atoms: C7_57  and  C8_64 
REMARK       I    between atoms: C7_57  and  N_63 
REMARK       I    between atoms: C8_58  and  C7_73 
REMARK       I    between atoms: C1_59  and  O1_68 
REMARK       I    between atoms: N_63  and  C2_67 
REMARK       I    between atoms: C4_69  and  O4_86 
REMARK       I    between atoms: N_72  and  C7_73 
REMARK       I    between atoms: C2_77  and  O2_82 
ROOT
ATOM      1  OSB ASG d 302      17.324  41.610  43.234  0.00  0.00    -0.572 OA
ATOM      2  O6  ASG d 302      17.155  38.260  40.395  0.00  0.00    -0.398 OA
ATOM      3  O4  ASG d 302      18.930  39.874  44.000  0.00  0.00    -0.246 OA
ATOM      4  S   ASG d 302      18.097  41.186  44.385  0.00  0.00     0.252 S 
ATOM      5  C6  ASG d 302      17.481  38.964  41.590  0.00  0.00     0.043 C 
ATOM      6  C2  ASG d 302      20.454  37.518  44.321  0.00  0.00     0.087 C 
ATOM      7  C1  ASG d 302      20.373  37.044  42.877  0.00  0.00     0.154 C 
ATOM      8  O5  ASG d 302      19.575  37.933  42.062  0.00  0.00    -0.349 OA
ATOM      9  C5  ASG d 302      18.220  38.066  42.549  0.00  0.00     0.090 C 
ATOM     10  O7  ASG d 302      22.737  38.114  45.971  0.00  0.00    -0.274 OA
ATOM     11  C3  ASG d 302      19.036  37.606  44.856  0.00  0.00     0.094 C 
ATOM     12  C8  ASG d 302      22.995  35.823  46.641  0.00  0.00    -0.003 C 
ATOM     13  OSA ASG d 302      17.205  40.906  45.495  0.00  0.00    -0.572 OA
ATOM     14  N   ASG d 302      21.253  36.550  45.130  0.00  0.00    -0.349 N 
ATOM     15  C7  ASG d 302      22.341  36.962  45.895  0.00  0.00     0.214 C 
ATOM     16  OSC ASG d 302      19.016  42.237  44.759  0.00  0.00    -0.572 OA
ATOM     17  O3  ASG d 302      19.108  38.094  46.147  0.00  0.00    -0.348 OA
ATOM     18  C4  ASG d 302      18.246  38.605  43.994  0.00  0.00     0.114 C 
ATOM     19  H   ASG d 302      16.681  38.851  39.790  0.00  0.00     0.209 HD
ATOM     20  H   ASG d 302      16.580  39.307  42.053  0.00  0.00     0.078 H 
ATOM     21  H   ASG d 302      18.108  39.794  41.341  0.00  0.00     0.078 H 
ATOM     22  H   ASG d 302      20.933  38.474  44.378  0.00  0.00     0.084 H 
ATOM     23  H   ASG d 302      19.917  36.077  42.883  0.00  0.00     0.132 H 
ATOM     24  H   ASG d 302      17.708  37.127  42.590  0.00  0.00     0.090 H 
ATOM     25  H   ASG d 302      18.558  36.649  44.835  0.00  0.00     0.091 H 
ATOM     26  H   ASG d 302      23.821  36.196  47.209  0.00  0.00     0.040 H 
ATOM     27  H   ASG d 302      23.345  35.092  45.941  0.00  0.00     0.040 H 
ATOM     28  H   ASG d 302      22.283  35.372  47.300  0.00  0.00     0.040 H 
ATOM     29  H   ASG d 302      21.004  35.598  45.122  0.00  0.00     0.163 HD
ATOM     30  H   ASG d 302      17.253  38.727  44.374  0.00  0.00     0.093 H 
ATOM     31  C6  BDP d 303      14.973  36.237  47.417  0.00  0.00     0.206 C 
ATOM     32  O4  BDP d 303      16.070  36.052  50.172  0.00  0.00    -0.348 OA
ATOM     33  O3  BDP d 303      18.433  37.467  50.830  0.00  0.00    -0.390 OA
ATOM     34  C3  BDP d 303      18.185  36.926  49.522  0.00  0.00     0.092 C 
ATOM     35  O6B BDP d 303      14.299  37.266  47.624  0.00  0.00    -0.646 OA
ATOM     36  C4  BDP d 303      16.675  36.885  49.243  0.00  0.00     0.103 C 
ATOM     37  C2  BDP d 303      18.832  37.824  48.486  0.00  0.00     0.110 C 
ATOM     38  O6A BDP d 303      14.624  35.138  46.929  0.00  0.00    -0.646 OA
ATOM     39  C1  BDP d 303      18.551  37.261  47.102  0.00  0.00     0.160 C 
ATOM     40  C5  BDP d 303      16.445  36.313  47.818  0.00  0.00     0.152 C 
ATOM     41  O5  BDP d 303      17.124  37.160  46.849  0.00  0.00    -0.340 OA
ATOM     42  O2  BDP d 303      20.248  37.876  48.685  0.00  0.00    -0.388 OA
ATOM     43  H   BDP d 303      19.388  37.488  50.995  0.00  0.00     0.210 HD
ATOM     44  H   BDP d 303      18.588  35.937  49.475  0.00  0.00     0.091 H 
ATOM     45  H   BDP d 303      16.260  37.869  49.312  0.00  0.00     0.092 H 
ATOM     46  H   BDP d 303      18.428  38.811  48.578  0.00  0.00     0.094 H 
ATOM     47  H   BDP d 303      18.979  36.283  47.050  0.00  0.00     0.133 H 
ATOM     48  H   BDP d 303      16.831  35.315  47.829  0.00  0.00     0.104 H 
ATOM     49  H   BDP d 303      20.619  36.984  48.601  0.00  0.00     0.210 HD
ATOM     50  C1  ASG d 306       6.879  36.194  49.765  0.00  0.00     0.151 C 
ATOM     51  C4  ASG d 306       4.702  38.070  49.191  0.00  0.00     0.089 C 
ATOM     52  C6  ASG d 306       6.396  39.878  49.763  0.00  0.00     0.043 C 
ATOM     53  S   ASG d 306       2.830  38.946  50.731  0.00  0.00     0.252 S 
ATOM     54  O4  ASG d 306       4.172  38.126  50.516  0.00  0.00    -0.249 OA
ATOM     55  OSB ASG d 306       2.444  38.862  52.128  0.00  0.00    -0.572 OA
ATOM     56  OSA ASG d 306       3.058  40.335  50.375  0.00  0.00    -0.572 OA
ATOM     57  C3  ASG d 306       4.558  36.596  48.666  0.00  0.00    -0.014 C 
ATOM     58  C7  ASG d 306       5.268  33.248  50.208  0.00  0.00     0.214 C 
ATOM     59  N   ASG d 306       5.476  34.266  49.275  0.00  0.00    -0.352 N 
ATOM     60  C8  ASG d 306       5.334  31.874  49.591  0.00  0.00    -0.003 C 
ATOM     61  C2  ASG d 306       5.465  35.707  49.682  0.00  0.00     0.062 C 
ATOM     62  O5  ASG d 306       6.926  37.584  50.163  0.00  0.00    -0.349 OA
ATOM     63  O6  ASG d 306       7.783  40.181  49.908  0.00  0.00    -0.398 OA
ATOM     64  O7  ASG d 306       5.060  33.431  51.404  0.00  0.00    -0.274 OA
ATOM     65  OSC ASG d 306       1.784  38.397  49.898  0.00  0.00    -0.572 OA
ATOM     66  C5  ASG d 306       6.206  38.468  49.249  0.00  0.00     0.088 C 
ATOM     67  H   ASG d 306       7.341  36.116  48.803  0.00  0.00     0.132 H 
ATOM     68  H   ASG d 306       4.179  38.737  48.536  0.00  0.00     0.089 H 
ATOM     69  H   ASG d 306       5.914  39.974  50.714  0.00  0.00     0.078 H 
ATOM     70  H   ASG d 306       5.968  40.561  49.059  0.00  0.00     0.078 H 
ATOM     71  H   ASG d 306       4.925  36.515  47.664  0.00  0.00     0.040 H 
ATOM     72  H   ASG d 306       3.539  36.272  48.643  0.00  0.00     0.040 H 
ATOM     73  H   ASG d 306       5.634  34.033  48.331  0.00  0.00     0.163 HD
ATOM     74  H   ASG d 306       5.524  31.963  48.542  0.00  0.00     0.040 H 
ATOM     75  H   ASG d 306       4.403  31.369  49.744  0.00  0.00     0.040 H 
ATOM     76  H   ASG d 306       6.122  31.314  50.051  0.00  0.00     0.040 H 
ATOM     77  H   ASG d 306       5.013  35.811  50.646  0.00  0.00     0.080 H 
ATOM     78  H   ASG d 306       8.183  39.568  50.544  0.00  0.00     0.209 HD
ATOM     79  H   ASG d 306       6.580  38.390  48.249  0.00  0.00     0.090 H 
ATOM     80  C5  BDP d 305       9.678  34.258  50.835  0.00  0.00     0.152 C 
ATOM     81  O6B BDP d 305      10.487  34.750  48.687  0.00  0.00    -0.646 OA
ATOM     82  C6  BDP d 305       9.737  33.997  49.336  0.00  0.00     0.206 C 
ATOM     83  O4  BDP d 305       7.560  35.408  50.691  0.00  0.00    -0.348 OA
ATOM     84  O3  BDP d 305       8.056  36.815  53.110  0.00  0.00    -0.390 OA
ATOM     85  C2  BDP d 305      10.264  35.901  53.161  0.00  0.00     0.110 C 
ATOM     86  C1  BDP d 305      11.123  34.695  52.751  0.00  0.00     0.160 C 
ATOM     87  C4  BDP d 305       8.839  35.504  51.201  0.00  0.00     0.103 C 
ATOM     88  O6A BDP d 305       9.012  33.051  48.942  0.00  0.00    -0.646 OA
ATOM     89  C3  BDP d 305       8.828  35.674  52.732  0.00  0.00     0.092 C 
ATOM     90  O2  BDP d 305      10.361  36.065  54.578  0.00  0.00    -0.388 OA
ATOM     91  O5  BDP d 305      11.044  34.462  51.312  0.00  0.00    -0.340 OA
ATOM     92  H   BDP d 305       9.209  33.413  51.295  0.00  0.00     0.104 H 
ATOM     93  H   BDP d 305       8.062  36.904  54.076  0.00  0.00     0.210 HD
ATOM     94  H   BDP d 305      10.612  36.792  52.681  0.00  0.00     0.094 H 
ATOM     95  H   BDP d 305      10.748  33.835  53.265  0.00  0.00     0.133 H 
ATOM     96  H   BDP d 305       9.283  36.372  50.760  0.00  0.00     0.092 H 
ATOM     97  H   BDP d 305       8.401  34.808  53.192  0.00  0.00     0.091 H 
ATOM     98  H   BDP d 305      10.048  35.260  55.019  0.00  0.00     0.210 HD
ATOM     99  O6B BDP d 301      22.698  33.510  42.167  0.00  0.00    -0.646 OA
ATOM    100  C6  BDP d 301      23.229  34.584  42.527  0.00  0.00     0.206 C 
ATOM    101  O6A BDP d 301      23.722  34.903  43.631  0.00  0.00    -0.646 OA
ATOM    102  O5  BDP d 301      23.836  35.095  40.252  0.00  0.00    -0.340 OA
ATOM    103  C5  BDP d 301      23.291  35.670  41.461  0.00  0.00     0.152 C 
ATOM    104  C3  BDP d 301      22.117  37.375  40.048  0.00  0.00     0.092 C 
ATOM    105  C1  BDP d 301      23.955  36.059  39.161  0.00  0.00     0.156 C 
ATOM    106  O1  BDP d 301      24.577  35.324  37.999  0.00  0.00    -0.368 OA
ATOM    107  C4  BDP d 301      21.941  36.327  41.176  0.00  0.00     0.103 C 
ATOM    108  C2  BDP d 301      22.634  36.673  38.801  0.00  0.00     0.110 C 
ATOM    109  O2  BDP d 301      22.841  37.596  37.734  0.00  0.00    -0.388 OA
ATOM    110  O4  BDP d 301      21.631  36.998  42.343  0.00  0.00    -0.348 OA
ATOM    111  O3  BDP d 301      20.860  37.986  39.749  0.00  0.00    -0.390 OA
ATOM    112  H   BDP d 301      23.918  36.453  41.832  0.00  0.00     0.104 H 
ATOM    113  H   BDP d 301      22.809  38.126  40.367  0.00  0.00     0.091 H 
ATOM    114  H   BDP d 301      24.569  36.884  39.456  0.00  0.00     0.133 H 
ATOM    115  H   BDP d 301      24.009  34.580  37.746  0.00  0.00     0.212 HD
ATOM    116  H   BDP d 301      21.193  35.620  40.883  0.00  0.00     0.092 H 
ATOM    117  H   BDP d 301      21.920  35.945  38.477  0.00  0.00     0.094 H 
ATOM    118  H   BDP d 301      23.486  38.266  38.007  0.00  0.00     0.210 HD
ATOM    119  H   BDP d 301      20.231  37.306  39.461  0.00  0.00     0.210 HD
ATOM    120  OSC ASG d 304      15.224  35.662  56.617  0.00  0.00    -0.572 OA
ATOM    121  O3  ASG d 304      12.472  34.916  53.105  0.00  0.00    -0.348 OA
ATOM    122  C5  ASG d 304      14.404  38.119  52.635  0.00  0.00     0.090 C 
ATOM    123  C6  ASG d 304      15.000  39.181  53.527  0.00  0.00     0.043 C 
ATOM    124  O4  ASG d 304      14.617  36.384  54.322  0.00  0.00    -0.246 OA
ATOM    125  C7  ASG d 304      14.519  33.311  50.185  0.00  0.00     0.214 C 
ATOM    126  C8  ASG d 304      13.786  32.454  49.178  0.00  0.00    -0.003 C 
ATOM    127  S   ASG d 304      14.248  36.433  55.874  0.00  0.00     0.252 S 
ATOM    128  OSB ASG d 304      14.255  37.808  56.341  0.00  0.00    -0.572 OA
ATOM    129  N   ASG d 304      13.768  34.397  50.612  0.00  0.00    -0.349 N 
ATOM    130  C4  ASG d 304      13.682  37.002  53.424  0.00  0.00     0.114 C 
ATOM    131  C3  ASG d 304      13.138  35.964  52.420  0.00  0.00     0.094 C 
ATOM    132  C1  ASG d 304      14.992  36.544  50.892  0.00  0.00     0.154 C 
ATOM    133  O7  ASG d 304      15.650  33.063  50.570  0.00  0.00    -0.274 OA
ATOM    134  O6  ASG d 304      15.259  40.375  52.786  0.00  0.00    -0.398 OA
ATOM    135  O5  ASG d 304      15.478  37.549  51.829  0.00  0.00    -0.349 OA
ATOM    136  C2  ASG d 304      14.289  35.388  51.612  0.00  0.00     0.087 C 
ATOM    137  OSA ASG d 304      12.922  35.872  56.077  0.00  0.00    -0.572 OA
ATOM    138  H   ASG d 304      13.659  38.578  52.021  0.00  0.00     0.090 H 
ATOM    139  H   ASG d 304      15.917  38.818  53.940  0.00  0.00     0.078 H 
ATOM    140  H   ASG d 304      14.304  39.405  54.308  0.00  0.00     0.078 H 
ATOM    141  H   ASG d 304      12.816  32.867  48.996  0.00  0.00     0.040 H 
ATOM    142  H   ASG d 304      13.685  31.461  49.561  0.00  0.00     0.040 H 
ATOM    143  H   ASG d 304      14.340  32.428  48.262  0.00  0.00     0.040 H 
ATOM    144  H   ASG d 304      12.863  34.521  50.246  0.00  0.00     0.163 HD
ATOM    145  H   ASG d 304      12.869  37.405  53.992  0.00  0.00     0.093 H 
ATOM    146  H   ASG d 304      12.443  36.448  51.767  0.00  0.00     0.091 H 
ATOM    147  H   ASG d 304      14.278  37.003  50.240  0.00  0.00     0.132 H 
ATOM    148  H   ASG d 304      15.891  40.183  52.074  0.00  0.00     0.209 HD
ATOM    149  H   ASG d 304      14.977  34.884  52.257  0.00  0.00     0.084 H 
ENDROOT
TORSDOF 38
ENDMDL
MODEL 2
REMARK VINA RESULT:     -10.2      3.675     15.209
REMARK  0 active torsions:
REMARK  status: ('A' for Active; 'I' for Inactive)
REMARK       I    between atoms: C6_2  and  C5_74 
REMARK       I    between atoms: C1_3  and  O4_24 
REMARK       I    between atoms: O6_4  and  C6_26 
REMARK       I    between atoms: C5_5  and  C6_12 
REMARK       I    between atoms: C4_6  and  O4_22 
REMARK       I    between atoms: C6_8  and  C5_90 
REMARK       I    between atoms: C6_8  and  O6_83 
REMARK       I    between atoms: O3_11  and  C3_60 
REMARK       I    between atoms: O3_11  and  C1_29 
REMARK       I    between atoms: C5_13  and  C6_18 
REMARK       I    between atoms: O4_14  and  C4_88 
REMARK       I    between atoms: O4_14  and  S_15 
REMARK       I    between atoms: C6_16  and  C5_28 
REMARK       I    between atoms: S_17  and  O4_22 
REMARK       I    between atoms: C6_18  and  O6_66 
REMARK       I    between atoms: O4_20  and  C4_46 
REMARK       I    between atoms: O4_20  and  C1_61 
REMARK       I    between atoms: O4_21  and  C4_54 
REMARK       I    between atoms: O4_21  and  S_40 
REMARK       I    between atoms: O4_24  and  C4_35 
REMARK       I    between atoms: O3_25  and  C3_48 
REMARK       I    between atoms: C6_26  and  C5_50 
REMARK       I    between atoms: C2_27  and  O2_55 
REMARK       I    between atoms: O3_31  and  C3_37 
REMARK       I    between atoms: C2_32  and  N_72 
REMARK       I    between atoms: C7_33  and  C8_39 
REMARK       I    between atoms: C7_33  and  N_52 
REMARK       I    between atoms: C1_34  and  O4_86 
REMARK       I    between atoms: C3_36  and  O3_87 
REMARK       I    between atoms: C2_47  and  O2_85 
REMARK       I    between atoms: N_52  and  C2_71 
REMARK       I    between atoms: C3_53  and  O3_81 
REMARK       I    between atoms: C1_56  and  O3_81 
REMARK       I    between atoms: C7_57  and  C8_64 
REMARK       I    between atoms: C7_57  and  N_63 
REMARK       I    between atoms: C8_58  and  C7_73 
REMARK       I    between atoms: C1_59  and  O1_68 
REMARK       I    between atoms: N_63  and  C2_67 
REMARK       I    between atoms: C4_69  and  O4_86 
REMARK       I    between atoms: N_72  and  C7_73 
REMARK       I    between atoms: C2_77  and  O2_82 
ROOT
ATOM      1  OSB ASG d 302       6.438  32.893  50.938  0.00  0.00    -0.572 OA
ATOM      2  O6  ASG d 302       4.326  36.730  50.588  0.00  0.00    -0.398 OA
ATOM      3  O4  ASG d 302       6.747  34.135  53.070  0.00  0.00    -0.246 OA
ATOM      4  S   ASG d 302       7.251  32.934  52.138  0.00  0.00     0.252 S 
ATOM      5  C6  ASG d 302       5.207  35.752  51.133  0.00  0.00     0.043 C 
ATOM      6  C2  ASG d 302       6.758  36.080  55.117  0.00  0.00     0.087 C 
ATOM      7  C1  ASG d 302       5.527  36.846  54.656  0.00  0.00     0.154 C 
ATOM      8  O5  ASG d 302       4.972  36.292  53.440  0.00  0.00    -0.349 OA
ATOM      9  C5  ASG d 302       5.918  36.295  52.346  0.00  0.00     0.090 C 
ATOM     10  O7  ASG d 302       7.324  34.778  57.622  0.00  0.00    -0.274 OA
ATOM     11  C3  ASG d 302       7.778  36.128  53.993  0.00  0.00     0.094 C 
ATOM     12  C8  ASG d 302       8.130  36.806  58.625  0.00  0.00    -0.003 C 
ATOM     13  OSA ASG d 302       8.642  33.129  51.777  0.00  0.00    -0.572 OA
ATOM     14  N   ASG d 302       7.317  36.711  56.349  0.00  0.00    -0.349 N 
ATOM     15  C7  ASG d 302       7.551  35.972  57.506  0.00  0.00     0.214 C 
ATOM     16  OSC ASG d 302       7.110  31.688  52.856  0.00  0.00    -0.572 OA
ATOM     17  O3  ASG d 302       8.871  35.381  54.390  0.00  0.00    -0.348 OA
ATOM     18  C4  ASG d 302       7.163  35.476  52.743  0.00  0.00     0.114 C 
ATOM     19  H   ASG d 302       3.878  36.365  49.810  0.00  0.00     0.209 HD
ATOM     20  H   ASG d 302       5.931  35.481  50.393  0.00  0.00     0.078 H 
ATOM     21  H   ASG d 302       4.635  34.896  51.423  0.00  0.00     0.078 H 
ATOM     22  H   ASG d 302       6.507  35.066  55.348  0.00  0.00     0.084 H 
ATOM     23  H   ASG d 302       5.829  37.855  54.470  0.00  0.00     0.132 H 
ATOM     24  H   ASG d 302       6.269  37.279  52.115  0.00  0.00     0.090 H 
ATOM     25  H   ASG d 302       8.061  37.136  53.775  0.00  0.00     0.091 H 
ATOM     26  H   ASG d 302       8.288  36.189  59.484  0.00  0.00     0.040 H 
ATOM     27  H   ASG d 302       7.448  37.594  58.872  0.00  0.00     0.040 H 
ATOM     28  H   ASG d 302       9.062  37.227  58.312  0.00  0.00     0.040 H 
ATOM     29  H   ASG d 302       7.526  37.673  56.344  0.00  0.00     0.163 HD
ATOM     30  H   ASG d 302       7.874  35.451  51.944  0.00  0.00     0.093 H 
ATOM     31  C6  BDP d 303      11.845  37.618  51.508  0.00  0.00     0.206 C 
ATOM     32  O4  BDP d 303      13.974  37.046  53.500  0.00  0.00    -0.348 OA
ATOM     33  O3  BDP d 303      13.496  35.144  55.543  0.00  0.00    -0.390 OA
ATOM     34  C3  BDP d 303      12.462  35.975  54.992  0.00  0.00     0.092 C 
ATOM     35  O6B BDP d 303      12.161  36.699  50.725  0.00  0.00    -0.646 OA
ATOM     36  C4  BDP d 303      12.786  36.330  53.534  0.00  0.00     0.103 C 
ATOM     37  C2  BDP d 303      11.152  35.211  55.011  0.00  0.00     0.110 C 
ATOM     38  O6A BDP d 303      11.670  38.837  51.279  0.00  0.00    -0.646 OA
ATOM     39  C1  BDP d 303      10.063  36.084  54.409  0.00  0.00     0.160 C 
ATOM     40  C5  BDP d 303      11.642  37.211  52.965  0.00  0.00     0.152 C 
ATOM     41  O5  BDP d 303      10.389  36.477  53.049  0.00  0.00    -0.340 OA
ATOM     42  O2  BDP d 303      10.788  34.878  56.354  0.00  0.00    -0.388 OA
ATOM     43  H   BDP d 303      13.280  34.927  56.463  0.00  0.00     0.210 HD
ATOM     44  H   BDP d 303      12.390  36.870  55.574  0.00  0.00     0.091 H 
ATOM     45  H   BDP d 303      12.883  35.439  52.949  0.00  0.00     0.092 H 
ATOM     46  H   BDP d 303      11.266  34.310  54.445  0.00  0.00     0.094 H 
ATOM     47  H   BDP d 303       9.976  36.965  55.010  0.00  0.00     0.133 H 
ATOM     48  H   BDP d 303      11.631  38.105  53.554  0.00  0.00     0.104 H 
ATOM     49  H   BDP d 303      10.683  35.692  56.872  0.00  0.00     0.210 HD
ATOM     50  C1  ASG d 306      17.085  38.563  44.975  0.00  0.00     0.151 C 
ATOM     51  C4  ASG d 306      17.151  37.243  42.358  0.00  0.00     0.089 C 
ATOM     52  C6  ASG d 306      16.801  35.094  43.672  0.00  0.00     0.043 C 
ATOM     53  S   ASG d 306      19.164  36.404  40.985  0.00  0.00     0.252 S 
ATOM     54  O4  ASG d 306      18.560  37.009  42.322  0.00  0.00    -0.249 OA
ATOM     55  OSB ASG d 306      20.601  36.265  41.137  0.00  0.00    -0.572 OA
ATOM     56  OSA ASG d 306      18.576  35.098  40.743  0.00  0.00    -0.572 OA
ATOM     57  C3  ASG d 306      16.912  38.795  42.392  0.00  0.00    -0.014 C 
ATOM     58  C7  ASG d 306      18.478  41.586  44.354  0.00  0.00     0.214 C 
ATOM     59  N   ASG d 306      17.415  40.760  43.982  0.00  0.00    -0.352 N 
ATOM     60  C8  ASG d 306      18.062  43.026  44.523  0.00  0.00    -0.003 C 
ATOM     61  C2  ASG d 306      17.610  39.290  43.775  0.00  0.00     0.062 C 
ATOM     62  O5  ASG d 306      17.256  37.133  44.829  0.00  0.00    -0.349 OA
ATOM     63  O6  ASG d 306      16.367  34.536  44.911  0.00  0.00    -0.398 OA
ATOM     64  O7  ASG d 306      19.629  41.201  44.536  0.00  0.00    -0.274 OA
ATOM     65  OSC ASG d 306      18.870  37.282  39.875  0.00  0.00    -0.572 OA
ATOM     66  C5  ASG d 306      16.581  36.591  43.652  0.00  0.00     0.088 C 
ATOM     67  H   ASG d 306      16.038  38.755  45.080  0.00  0.00     0.132 H 
ATOM     68  H   ASG d 306      16.667  36.823  41.501  0.00  0.00     0.089 H 
ATOM     69  H   ASG d 306      17.843  34.890  43.541  0.00  0.00     0.078 H 
ATOM     70  H   ASG d 306      16.233  34.653  42.880  0.00  0.00     0.078 H 
ATOM     71  H   ASG d 306      15.865  39.016  42.398  0.00  0.00     0.040 H 
ATOM     72  H   ASG d 306      17.320  39.287  41.533  0.00  0.00     0.040 H 
ATOM     73  H   ASG d 306      16.520  41.151  43.854  0.00  0.00     0.163 HD
ATOM     74  H   ASG d 306      17.017  43.122  44.312  0.00  0.00     0.040 H 
ATOM     75  H   ASG d 306      18.621  43.641  43.848  0.00  0.00     0.040 H 
ATOM     76  H   ASG d 306      18.253  43.337  45.529  0.00  0.00     0.040 H 
ATOM     77  H   ASG d 306      18.652  39.070  43.673  0.00  0.00     0.080 H 
ATOM     78  H   ASG d 306      16.875  34.928  45.638  0.00  0.00     0.209 HD
ATOM     79  H   ASG d 306      15.533  36.806  43.665  0.00  0.00     0.090 H 
ATOM     80  C5  BDP d 305      17.244  39.732  48.342  0.00  0.00     0.152 C 
ATOM     81  O6B BDP d 305      14.905  39.558  48.219  0.00  0.00    -0.646 OA
ATOM     82  C6  BDP d 305      15.882  40.279  47.938  0.00  0.00     0.206 C 
ATOM     83  O4  BDP d 305      17.773  39.015  46.098  0.00  0.00    -0.348 OA
ATOM     84  O3  BDP d 305      19.621  37.079  47.055  0.00  0.00    -0.390 OA
ATOM     85  C2  BDP d 305      18.942  37.573  49.293  0.00  0.00     0.110 C 
ATOM     86  C1  BDP d 305      18.392  38.672  50.214  0.00  0.00     0.160 C 
ATOM     87  C4  BDP d 305      17.740  38.599  47.414  0.00  0.00     0.103 C 
ATOM     88  O6A BDP d 305      15.917  41.395  47.365  0.00  0.00    -0.646 OA
ATOM     89  C3  BDP d 305      19.125  38.125  47.893  0.00  0.00     0.092 C 
ATOM     90  O2  BDP d 305      20.182  37.109  49.833  0.00  0.00    -0.388 OA
ATOM     91  O5  BDP d 305      17.134  39.204  49.699  0.00  0.00    -0.340 OA
ATOM     92  H   BDP d 305      17.951  40.532  48.272  0.00  0.00     0.104 H 
ATOM     93  H   BDP d 305      20.493  36.795  47.373  0.00  0.00     0.210 HD
ATOM     94  H   BDP d 305      18.258  36.753  49.235  0.00  0.00     0.094 H 
ATOM     95  H   BDP d 305      19.115  39.460  50.252  0.00  0.00     0.133 H 
ATOM     96  H   BDP d 305      17.058  37.777  47.462  0.00  0.00     0.092 H 
ATOM     97  H   BDP d 305      19.819  38.938  47.867  0.00  0.00     0.091 H 
ATOM     98  H   BDP d 305      20.807  37.848  49.889  0.00  0.00     0.210 HD
ATOM     99  O6B BDP d 301       4.439  40.000  57.350  0.00  0.00    -0.646 OA
ATOM    100  C6  BDP d 301       4.429  38.801  57.706  0.00  0.00     0.206 C 
ATOM    101  O6A BDP d 301       5.212  38.183  58.461  0.00  0.00    -0.646 OA
ATOM    102  O5  BDP d 301       2.050  38.670  57.352  0.00  0.00    -0.340 OA
ATOM    103  C5  BDP d 301       3.292  37.961  57.139  0.00  0.00     0.152 C 
ATOM    104  C3  BDP d 301       2.230  36.807  55.184  0.00  0.00     0.092 C 
ATOM    105  C1  BDP d 301       0.884  37.943  56.856  0.00  0.00     0.156 C 
ATOM    106  O1  BDP d 301      -0.324  38.783  57.192  0.00  0.00    -0.368 OA
ATOM    107  C4  BDP d 301       3.463  37.616  55.660  0.00  0.00     0.103 C 
ATOM    108  C2  BDP d 301       0.980  37.650  55.388  0.00  0.00     0.110 C 
ATOM    109  O2  BDP d 301      -0.193  36.943  54.990  0.00  0.00    -0.388 OA
ATOM    110  O4  BDP d 301       4.565  36.784  55.624  0.00  0.00    -0.348 OA
ATOM    111  O3  BDP d 301       2.358  36.494  53.796  0.00  0.00    -0.390 OA
ATOM    112  H   BDP d 301       3.293  37.024  57.654  0.00  0.00     0.104 H 
ATOM    113  H   BDP d 301       2.163  35.899  55.747  0.00  0.00     0.091 H 
ATOM    114  H   BDP d 301       0.815  36.983  57.322  0.00  0.00     0.133 H 
ATOM    115  H   BDP d 301      -0.246  39.649  56.762  0.00  0.00     0.212 HD
ATOM    116  H   BDP d 301       3.569  38.485  55.045  0.00  0.00     0.092 H 
ATOM    117  H   BDP d 301       1.047  38.540  54.798  0.00  0.00     0.094 H 
ATOM    118  H   BDP d 301      -0.274  36.131  55.514  0.00  0.00     0.210 HD
ATOM    119  H   BDP d 301       2.419  37.315  53.284  0.00  0.00     0.210 HD
ATOM    120  OSC ASG d 304      20.248  36.250  55.050  0.00  0.00    -0.572 OA
ATOM    121  O3  ASG d 304      18.175  38.157  51.511  0.00  0.00    -0.348 OA
ATOM    122  C5  ASG d 304      16.603  34.835  52.353  0.00  0.00     0.090 C 
ATOM    123  C6  ASG d 304      17.057  33.528  52.954  0.00  0.00     0.043 C 
ATOM    124  O4  ASG d 304      18.285  36.127  53.537  0.00  0.00    -0.246 OA
ATOM    125  C7  ASG d 304      14.923  39.950  52.737  0.00  0.00     0.214 C 
ATOM    126  C8  ASG d 304      14.388  41.107  51.924  0.00  0.00    -0.003 C 
ATOM    127  S   ASG d 304      19.841  35.826  53.726  0.00  0.00     0.252 S 
ATOM    128  OSB ASG d 304      20.092  34.404  53.572  0.00  0.00    -0.572 OA
ATOM    129  N   ASG d 304      15.463  38.945  51.948  0.00  0.00    -0.349 N 
ATOM    130  C4  ASG d 304      17.742  35.874  52.231  0.00  0.00     0.114 C 
ATOM    131  C3  ASG d 304      17.161  37.172  51.634  0.00  0.00     0.094 C 
ATOM    132  C1  ASG d 304      14.981  36.610  52.654  0.00  0.00     0.154 C 
ATOM    133  O7  ASG d 304      14.876  39.918  53.956  0.00  0.00    -0.274 OA
ATOM    134  O6  ASG d 304      16.129  32.484  52.654  0.00  0.00    -0.398 OA
ATOM    135  O5  ASG d 304      15.527  35.366  53.184  0.00  0.00    -0.349 OA
ATOM    136  C2  ASG d 304      16.055  37.696  52.535  0.00  0.00     0.087 C 
ATOM    137  OSA ASG d 304      20.604  36.551  52.723  0.00  0.00    -0.572 OA
ATOM    138  H   ASG d 304      16.265  34.646  51.356  0.00  0.00     0.090 H 
ATOM    139  H   ASG d 304      17.132  33.636  54.016  0.00  0.00     0.078 H 
ATOM    140  H   ASG d 304      18.009  33.271  52.539  0.00  0.00     0.078 H 
ATOM    141  H   ASG d 304      14.540  40.912  50.883  0.00  0.00     0.040 H 
ATOM    142  H   ASG d 304      14.904  42.004  52.197  0.00  0.00     0.040 H 
ATOM    143  H   ASG d 304      13.342  41.225  52.116  0.00  0.00     0.040 H 
ATOM    144  H   ASG d 304      15.457  39.054  50.970  0.00  0.00     0.163 HD
ATOM    145  H   ASG d 304      18.521  35.508  51.595  0.00  0.00     0.093 H 
ATOM    146  H   ASG d 304      16.766  36.958  50.662  0.00  0.00     0.091 H 
ATOM    147  H   ASG d 304      14.598  36.422  51.672  0.00  0.00     0.132 H 
ATOM    148  H   ASG d 304      15.261  32.706  53.026  0.00  0.00     0.209 HD
ATOM    149  H   ASG d 304      16.447  37.933  53.501  0.00  0.00     0.084 H 
ENDROOT
TORSDOF 38
ENDMDL
MODEL 3
REMARK VINA RESULT:      -9.9      1.674      1.867
REMARK  0 active torsions:
REMARK  status: ('A' for Active; 'I' for Inactive)
REMARK       I    between atoms: C6_2  and  C5_74 
REMARK       I    between atoms: C1_3  and  O4_24 
REMARK       I    between atoms: O6_4  and  C6_26 
REMARK       I    between atoms: C5_5  and  C6_12 
REMARK       I    between atoms: C4_6  and  O4_22 
REMARK       I    between atoms: C6_8  and  C5_90 
REMARK       I    between atoms: C6_8  and  O6_83 
REMARK       I    between atoms: O3_11  and  C3_60 
REMARK       I    between atoms: O3_11  and  C1_29 
REMARK       I    between atoms: C5_13  and  C6_18 
REMARK       I    between atoms: O4_14  and  C4_88 
REMARK       I    between atoms: O4_14  and  S_15 
REMARK       I    between atoms: C6_16  and  C5_28 
REMARK       I    between atoms: S_17  and  O4_22 
REMARK       I    between atoms: C6_18  and  O6_66 
REMARK       I    between atoms: O4_20  and  C4_46 
REMARK       I    between atoms: O4_20  and  C1_61 
REMARK       I    between atoms: O4_21  and  C4_54 
REMARK       I    between atoms: O4_21  and  S_40 
REMARK       I    between atoms: O4_24  and  C4_35 
REMARK       I    between atoms: O3_25  and  C3_48 
REMARK       I    between atoms: C6_26  and  C5_50 
REMARK       I    between atoms: C2_27  and  O2_55 
REMARK       I    between atoms: O3_31  and  C3_37 
REMARK       I    between atoms: C2_32  and  N_72 
REMARK       I    between atoms: C7_33  and  C8_39 
REMARK       I    between atoms: C7_33  and  N_52 
REMARK       I    between atoms: C1_34  and  O4_86 
REMARK       I    between atoms: C3_36  and  O3_87 
REMARK       I    between atoms: C2_47  and  O2_85 
REMARK       I    between atoms: N_52  and  C2_71 
REMARK       I    between atoms: C3_53  and  O3_81 
REMARK       I    between atoms: C1_56  and  O3_81 
REMARK       I    between atoms: C7_57  and  C8_64 
REMARK       I    between atoms: C7_57  and  N_63 
REMARK       I    between atoms: C8_58  and  C7_73 
REMARK       I    between atoms: C1_59  and  O1_68 
REMARK       I    between atoms: N_63  and  C2_67 
REMARK       I    between atoms: C4_69  and  O4_86 
REMARK       I    between atoms: N_72  and  C7_73 
REMARK       I    between atoms: C2_77  and  O2_82 
ROOT
ATOM      1  OSB ASG d 302      15.763  39.931  40.991  0.00  0.00    -0.572 OA
ATOM      2  O6  ASG d 302      15.579  35.901  39.248  0.00  0.00    -0.398 OA
ATOM      3  O4  ASG d 302      17.599  38.580  41.986  0.00  0.00    -0.246 OA
ATOM      4  S   ASG d 302      16.698  39.900  42.099  0.00  0.00     0.252 S 
ATOM      5  C6  ASG d 302      15.974  36.936  40.144  0.00  0.00     0.043 C 
ATOM      6  C2  ASG d 302      19.358  36.506  42.740  0.00  0.00     0.087 C 
ATOM      7  C1  ASG d 302      19.158  35.632  41.511  0.00  0.00     0.154 C 
ATOM      8  O5  ASG d 302      18.194  36.203  40.596  0.00  0.00    -0.349 OA
ATOM      9  C5  ASG d 302      16.896  36.396  41.206  0.00  0.00     0.090 C 
ATOM     10  O7  ASG d 302      21.751  37.677  43.835  0.00  0.00    -0.274 OA
ATOM     11  C3  ASG d 302      18.009  36.665  43.417  0.00  0.00     0.094 C 
ATOM     12  C8  ASG d 302      22.292  35.693  45.075  0.00  0.00    -0.003 C 
ATOM     13  OSA ASG d 302      15.968  39.902  43.353  0.00  0.00    -0.572 OA
ATOM     14  N   ASG d 302      20.329  35.857  43.671  0.00  0.00    -0.349 N 
ATOM     15  C7  ASG d 302      21.455  36.531  44.137  0.00  0.00     0.214 C 
ATOM     16  OSC ASG d 302      17.554  41.063  42.037  0.00  0.00    -0.572 OA
ATOM     17  O3  ASG d 302      18.182  37.507  44.499  0.00  0.00    -0.348 OA
ATOM     18  C4  ASG d 302      17.038  37.328  42.426  0.00  0.00     0.114 C 
ATOM     19  H   ASG d 302      14.988  36.267  38.572  0.00  0.00     0.209 HD
ATOM     20  H   ASG d 302      15.103  37.348  40.610  0.00  0.00     0.078 H 
ATOM     21  H   ASG d 302      16.490  37.693  39.591  0.00  0.00     0.078 H 
ATOM     22  H   ASG d 302      19.751  37.462  42.464  0.00  0.00     0.084 H 
ATOM     23  H   ASG d 302      18.795  34.684  41.848  0.00  0.00     0.132 H 
ATOM     24  H   ASG d 302      16.481  35.481  41.575  0.00  0.00     0.090 H 
ATOM     25  H   ASG d 302      17.621  35.718  43.728  0.00  0.00     0.091 H 
ATOM     26  H   ASG d 302      23.139  36.260  45.400  0.00  0.00     0.040 H 
ATOM     27  H   ASG d 302      22.625  34.813  44.566  0.00  0.00     0.040 H 
ATOM     28  H   ASG d 302      21.704  35.413  45.924  0.00  0.00     0.040 H 
ATOM     29  H   ASG d 302      20.170  34.931  43.963  0.00  0.00     0.163 HD
ATOM     30  H   ASG d 302      16.088  37.499  42.888  0.00  0.00     0.093 H 
ATOM     31  C6  BDP d 303      14.407  35.869  46.784  0.00  0.00     0.206 C 
ATOM     32  O4  BDP d 303      15.823  36.546  49.306  0.00  0.00    -0.348 OA
ATOM     33  O3  BDP d 303      18.105  38.219  49.217  0.00  0.00    -0.390 OA
ATOM     34  C3  BDP d 303      17.761  37.312  48.158  0.00  0.00     0.092 C 
ATOM     35  O6B BDP d 303      13.669  36.875  46.785  0.00  0.00    -0.646 OA
ATOM     36  C4  BDP d 303      16.240  37.108  48.109  0.00  0.00     0.103 C 
ATOM     37  C2  BDP d 303      18.200  37.907  46.835  0.00  0.00     0.110 C 
ATOM     38  O6A BDP d 303      14.107  34.658  46.673  0.00  0.00    -0.646 OA
ATOM     39  C1  BDP d 303      17.816  36.955  45.714  0.00  0.00     0.160 C 
ATOM     40  C5  BDP d 303      15.901  36.139  46.944  0.00  0.00     0.152 C 
ATOM     41  O5  BDP d 303      16.385  36.707  45.695  0.00  0.00    -0.340 OA
ATOM     42  O2  BDP d 303      19.619  38.093  46.818  0.00  0.00    -0.388 OA
ATOM     43  H   BDP d 303      19.067  38.340  49.239  0.00  0.00     0.210 HD
ATOM     44  H   BDP d 303      18.245  36.374  48.335  0.00  0.00     0.091 H 
ATOM     45  H   BDP d 303      15.746  38.045  47.956  0.00  0.00     0.092 H 
ATOM     46  H   BDP d 303      17.722  38.855  46.703  0.00  0.00     0.094 H 
ATOM     47  H   BDP d 303      18.323  36.028  45.880  0.00  0.00     0.133 H 
ATOM     48  H   BDP d 303      16.376  35.209  47.181  0.00  0.00     0.104 H 
ATOM     49  H   BDP d 303      20.059  37.236  46.937  0.00  0.00     0.210 HD
ATOM     50  C1  ASG d 306       6.672  36.055  50.124  0.00  0.00     0.151 C 
ATOM     51  C4  ASG d 306       4.280  37.563  49.349  0.00  0.00     0.089 C 
ATOM     52  C6  ASG d 306       5.856  39.550  49.160  0.00  0.00     0.043 C 
ATOM     53  S   ASG d 306       2.524  38.741  50.823  0.00  0.00     0.252 S 
ATOM     54  O4  ASG d 306       3.902  37.969  50.666  0.00  0.00    -0.249 OA
ATOM     55  OSB ASG d 306       2.309  39.041  52.227  0.00  0.00    -0.572 OA
ATOM     56  OSA ASG d 306       2.581  39.979  50.067  0.00  0.00    -0.572 OA
ATOM     57  C3  ASG d 306       4.213  35.995  49.280  0.00  0.00    -0.014 C 
ATOM     58  C7  ASG d 306       5.398  33.278  51.583  0.00  0.00     0.214 C 
ATOM     59  N   ASG d 306       5.404  33.994  50.384  0.00  0.00    -0.352 N 
ATOM     60  C8  ASG d 306       5.519  31.790  51.371  0.00  0.00    -0.003 C 
ATOM     61  C2  ASG d 306       5.307  35.488  50.371  0.00  0.00     0.062 C 
ATOM     62  O5  ASG d 306       6.635  37.502  50.108  0.00  0.00    -0.349 OA
ATOM     63  O6  ASG d 306       7.216  39.958  49.026  0.00  0.00    -0.398 OA
ATOM     64  O7  ASG d 306       5.312  33.785  52.698  0.00  0.00    -0.274 OA
ATOM     65  OSC ASG d 306       1.444  37.917  50.326  0.00  0.00    -0.572 OA
ATOM     66  C5  ASG d 306       5.738  38.044  49.091  0.00  0.00     0.088 C 
ATOM     67  H   ASG d 306       7.025  35.729  49.168  0.00  0.00     0.132 H 
ATOM     68  H   ASG d 306       3.627  37.984  48.612  0.00  0.00     0.089 H 
ATOM     69  H   ASG d 306       5.479  39.889  50.103  0.00  0.00     0.078 H 
ATOM     70  H   ASG d 306       5.289  39.977  48.359  0.00  0.00     0.078 H 
ATOM     71  H   ASG d 306       4.469  35.650  48.300  0.00  0.00     0.040 H 
ATOM     72  H   ASG d 306       3.232  35.622  49.486  0.00  0.00     0.040 H 
ATOM     73  H   ASG d 306       5.474  33.507  49.531  0.00  0.00     0.163 HD
ATOM     74  H   ASG d 306       5.579  31.583  50.322  0.00  0.00     0.040 H 
ATOM     75  H   ASG d 306       4.661  31.299  51.783  0.00  0.00     0.040 H 
ATOM     76  H   ASG d 306       6.402  31.431  51.856  0.00  0.00     0.040 H 
ATOM     77  H   ASG d 306       4.960  35.840  51.321  0.00  0.00     0.080 H 
ATOM     78  H   ASG d 306       7.741  39.578  49.748  0.00  0.00     0.209 HD
ATOM     79  H   ASG d 306       6.002  37.702  48.111  0.00  0.00     0.090 H 
ATOM     80  C5  BDP d 305       9.740  34.668  51.301  0.00  0.00     0.152 C 
ATOM     81  O6B BDP d 305      10.250  34.564  49.012  0.00  0.00    -0.646 OA
ATOM     82  C6  BDP d 305       9.651  33.990  49.941  0.00  0.00     0.206 C 
ATOM     83  O4  BDP d 305       7.522  35.608  51.130  0.00  0.00    -0.348 OA
ATOM     84  O3  BDP d 305       8.160  37.678  52.971  0.00  0.00    -0.390 OA
ATOM     85  C2  BDP d 305      10.434  36.941  52.975  0.00  0.00     0.110 C 
ATOM     86  C1  BDP d 305      11.347  35.717  52.805  0.00  0.00     0.160 C 
ATOM     87  C4  BDP d 305       8.837  35.918  51.415  0.00  0.00     0.103 C 
ATOM     88  O6A BDP d 305       8.976  32.932  49.928  0.00  0.00    -0.646 OA
ATOM     89  C3  BDP d 305       8.985  36.520  52.825  0.00  0.00     0.092 C 
ATOM     90  O2  BDP d 305      10.676  37.511  54.264  0.00  0.00    -0.388 OA
ATOM     91  O5  BDP d 305      11.126  35.076  51.513  0.00  0.00    -0.340 OA
ATOM     92  H   BDP d 305       9.405  33.967  52.038  0.00  0.00     0.104 H 
ATOM     93  H   BDP d 305       8.267  38.041  53.865  0.00  0.00     0.210 HD
ATOM     94  H   BDP d 305      10.642  37.673  52.224  0.00  0.00     0.094 H 
ATOM     95  H   BDP d 305      11.113  35.023  53.584  0.00  0.00     0.133 H 
ATOM     96  H   BDP d 305       9.147  36.646  50.695  0.00  0.00     0.092 H 
ATOM     97  H   BDP d 305       8.694  35.801  53.562  0.00  0.00     0.091 H 
ATOM     98  H   BDP d 305      10.490  36.851  54.950  0.00  0.00     0.210 HD
ATOM     99  O6B BDP d 301      21.700  32.178  41.506  0.00  0.00    -0.646 OA
ATOM    100  C6  BDP d 301      22.169  33.337  41.477  0.00  0.00     0.206 C 
ATOM    101  O6A BDP d 301      22.753  33.987  42.371  0.00  0.00    -0.646 OA
ATOM    102  O5  BDP d 301      22.463  33.204  39.089  0.00  0.00    -0.340 OA
ATOM    103  C5  BDP d 301      22.008  34.072  40.152  0.00  0.00     0.152 C 
ATOM    104  C3  BDP d 301      20.530  35.230  38.493  0.00  0.00     0.092 C 
ATOM    105  C1  BDP d 301      22.367  33.818  37.768  0.00  0.00     0.156 C 
ATOM    106  O1  BDP d 301      22.918  32.815  36.783  0.00  0.00    -0.368 OA
ATOM    107  C4  BDP d 301      20.580  34.544  39.881  0.00  0.00     0.103 C 
ATOM    108  C2  BDP d 301      20.963  34.229  37.433  0.00  0.00     0.110 C 
ATOM    109  O2  BDP d 301      20.962  34.815  36.133  0.00  0.00    -0.388 OA
ATOM    110  O4  BDP d 301      20.345  35.504  40.846  0.00  0.00    -0.348 OA
ATOM    111  O3  BDP d 301      19.196  35.659  38.209  0.00  0.00    -0.390 OA
ATOM    112  H   BDP d 301      22.600  34.962  40.202  0.00  0.00     0.104 H 
ATOM    113  H   BDP d 301      21.182  36.079  38.493  0.00  0.00     0.091 H 
ATOM    114  H   BDP d 301      22.933  34.726  37.735  0.00  0.00     0.133 H 
ATOM    115  H   BDP d 301      22.395  31.999  36.826  0.00  0.00     0.212 HD
ATOM    116  H   BDP d 301      19.872  33.742  39.901  0.00  0.00     0.092 H 
ATOM    117  H   BDP d 301      20.287  33.400  37.424  0.00  0.00     0.094 H 
ATOM    118  H   BDP d 301      21.570  35.571  36.119  0.00  0.00     0.210 HD
ATOM    119  H   BDP d 301      18.603  34.891  38.209  0.00  0.00     0.210 HD
ATOM    120  OSC ASG d 304      15.756  37.982  55.657  0.00  0.00    -0.572 OA
ATOM    121  O3  ASG d 304      12.702  36.105  52.898  0.00  0.00    -0.348 OA
ATOM    122  C5  ASG d 304      14.266  39.139  51.298  0.00  0.00     0.090 C 
ATOM    123  C6  ASG d 304      14.860  40.444  51.769  0.00  0.00     0.043 C 
ATOM    124  O4  ASG d 304      14.828  37.978  53.356  0.00  0.00    -0.246 OA
ATOM    125  C7  ASG d 304      14.541  33.843  50.291  0.00  0.00     0.214 C 
ATOM    126  C8  ASG d 304      13.780  32.693  49.672  0.00  0.00    -0.003 C 
ATOM    127  S   ASG d 304      14.635  38.451  54.868  0.00  0.00     0.252 S 
ATOM    128  OSB ASG d 304      14.570  39.900  54.928  0.00  0.00    -0.572 OA
ATOM    129  N   ASG d 304      13.748  34.963  50.497  0.00  0.00    -0.349 N 
ATOM    130  C4  ASG d 304      13.744  38.258  52.457  0.00  0.00     0.114 C 
ATOM    131  C3  ASG d 304      13.187  36.947  51.865  0.00  0.00     0.094 C 
ATOM    132  C1  ASG d 304      14.793  37.163  49.999  0.00  0.00     0.154 C 
ATOM    133  O7  ASG d 304      15.726  33.780  50.574  0.00  0.00    -0.274 OA
ATOM    134  O6  ASG d 304      14.923  41.387  50.697  0.00  0.00    -0.398 OA
ATOM    135  O5  ASG d 304      15.289  38.421  50.545  0.00  0.00    -0.349 OA
ATOM    136  C2  ASG d 304      14.286  36.227  51.101  0.00  0.00     0.087 C 
ATOM    137  OSA ASG d 304      13.398  37.899  55.397  0.00  0.00    -0.572 OA
ATOM    138  H   ASG d 304      13.417  39.360  50.686  0.00  0.00     0.090 H 
ATOM    139  H   ASG d 304      15.848  40.267  52.139  0.00  0.00     0.078 H 
ATOM    140  H   ASG d 304      14.240  40.844  52.543  0.00  0.00     0.078 H 
ATOM    141  H   ASG d 304      12.761  32.982  49.516  0.00  0.00     0.040 H 
ATOM    142  H   ASG d 304      13.815  31.849  50.327  0.00  0.00     0.040 H 
ATOM    143  H   ASG d 304      14.225  32.435  48.733  0.00  0.00     0.040 H 
ATOM    144  H   ASG d 304      12.799  34.926  50.237  0.00  0.00     0.163 HD
ATOM    145  H   ASG d 304      12.968  38.762  52.995  0.00  0.00     0.093 H 
ATOM    146  H   ASG d 304      12.380  37.183  51.203  0.00  0.00     0.091 H 
ATOM    147  H   ASG d 304      13.970  37.375  49.349  0.00  0.00     0.132 H 
ATOM    148  H   ASG d 304      15.484  41.033  49.988  0.00  0.00     0.209 HD
ATOM    149  H   ASG d 304      15.087  35.969  51.761  0.00  0.00     0.084 H 
ENDROOT
TORSDOF 38
ENDMDL
MODEL 4
REMARK VINA RESULT:      -8.9      5.930     12.628
REMARK  0 active torsions:
REMARK  status: ('A' for Active; 'I' for Inactive)
REMARK       I    between atoms: C6_2  and  C5_74 
REMARK       I    between atoms: C1_3  and  O4_24 
REMARK       I    between atoms: O6_4  and  C6_26 
REMARK       I    between atoms: C5_5  and  C6_12 
REMARK       I    between atoms: C4_6  and  O4_22 
REMARK       I    between atoms: C6_8  and  C5_90 
REMARK       I    between atoms: C6_8  and  O6_83 
REMARK       I    between atoms: O3_11  and  C3_60 
REMARK       I    between atoms: O3_11  and  C1_29 
REMARK       I    between atoms: C5_13  and  C6_18 
REMARK       I    between atoms: O4_14  and  C4_88 
REMARK       I    between atoms: O4_14  and  S_15 
REMARK       I    between atoms: C6_16  and  C5_28 
REMARK       I    between atoms: S_17  and  O4_22 
REMARK       I    between atoms: C6_18  and  O6_66 
REMARK       I    between atoms: O4_20  and  C4_46 
REMARK       I    between atoms: O4_20  and  C1_61 
REMARK       I    between atoms: O4_21  and  C4_54 
REMARK       I    between atoms: O4_21  and  S_40 
REMARK       I    between atoms: O4_24  and  C4_35 
REMARK       I    between atoms: O3_25  and  C3_48 
REMARK       I    between atoms: C6_26  and  C5_50 
REMARK       I    between atoms: C2_27  and  O2_55 
REMARK       I    between atoms: O3_31  and  C3_37 
REMARK       I    between atoms: C2_32  and  N_72 
REMARK       I    between atoms: C7_33  and  C8_39 
REMARK       I    between atoms: C7_33  and  N_52 
REMARK       I    between atoms: C1_34  and  O4_86 
REMARK       I    between atoms: C3_36  and  O3_87 
REMARK       I    between atoms: C2_47  and  O2_85 
REMARK       I    between atoms: N_52  and  C2_71 
REMARK       I    between atoms: C3_53  and  O3_81 
REMARK       I    between atoms: C1_56  and  O3_81 
REMARK       I    between atoms: C7_57  and  C8_64 
REMARK       I    between atoms: C7_57  and  N_63 
REMARK       I    between atoms: C8_58  and  C7_73 
REMARK       I    between atoms: C1_59  and  O1_68 
REMARK       I    between atoms: N_63  and  C2_67 
REMARK       I    between atoms: C4_69  and  O4_86 
REMARK       I    between atoms: N_72  and  C7_73 
REMARK       I    between atoms: C2_77  and  O2_82 
ROOT
ATOM      1  OSB ASG d 302      11.690  35.729  51.403  0.00  0.00    -0.572 OA
ATOM      2  O6  ASG d 302      14.471  38.967  52.449  0.00  0.00    -0.398 OA
ATOM      3  O4  ASG d 302      14.007  34.853  51.179  0.00  0.00    -0.246 OA
ATOM      4  S   ASG d 302      12.459  34.645  50.823  0.00  0.00     0.252 S 
ATOM      5  C6  ASG d 302      14.040  37.711  51.933  0.00  0.00     0.043 C 
ATOM      6  C2  ASG d 302      16.812  34.558  51.058  0.00  0.00     0.087 C 
ATOM      7  C1  ASG d 302      17.163  35.722  51.974  0.00  0.00     0.154 C 
ATOM      8  O5  ASG d 302      15.983  36.426  52.427  0.00  0.00    -0.349 OA
ATOM      9  C5  ASG d 302      15.199  36.957  51.333  0.00  0.00     0.090 C 
ATOM     10  O7  ASG d 302      17.455  31.759  51.258  0.00  0.00    -0.274 OA
ATOM     11  C3  ASG d 302      16.037  35.118  49.879  0.00  0.00     0.094 C 
ATOM     12  C8  ASG d 302      19.580  32.052  50.178  0.00  0.00    -0.003 C 
ATOM     13  OSA ASG d 302      12.273  34.632  49.384  0.00  0.00    -0.572 OA
ATOM     14  N   ASG d 302      18.060  33.889  50.585  0.00  0.00    -0.349 N 
ATOM     15  C7  ASG d 302      18.256  32.519  50.737  0.00  0.00     0.214 C 
ATOM     16  OSC ASG d 302      12.010  33.388  51.378  0.00  0.00    -0.572 OA
ATOM     17  O3  ASG d 302      15.668  34.052  49.080  0.00  0.00    -0.348 OA
ATOM     18  C4  ASG d 302      14.765  35.803  50.406  0.00  0.00     0.114 C 
ATOM     19  H   ASG d 302      13.714  39.437  52.830  0.00  0.00     0.209 HD
ATOM     20  H   ASG d 302      13.300  37.876  51.178  0.00  0.00     0.078 H 
ATOM     21  H   ASG d 302      13.629  37.132  52.733  0.00  0.00     0.078 H 
ATOM     22  H   ASG d 302      16.223  33.832  51.579  0.00  0.00     0.084 H 
ATOM     23  H   ASG d 302      17.774  36.397  51.413  0.00  0.00     0.132 H 
ATOM     24  H   ASG d 302      15.759  37.635  50.724  0.00  0.00     0.090 H 
ATOM     25  H   ASG d 302      16.628  35.821  49.330  0.00  0.00     0.091 H 
ATOM     26  H   ASG d 302      19.675  30.997  50.321  0.00  0.00     0.040 H 
ATOM     27  H   ASG d 302      20.378  32.555  50.685  0.00  0.00     0.040 H 
ATOM     28  H   ASG d 302      19.625  32.276  49.133  0.00  0.00     0.040 H 
ATOM     29  H   ASG d 302      18.762  34.429  50.156  0.00  0.00     0.163 HD
ATOM     30  H   ASG d 302      14.171  36.168  49.595  0.00  0.00     0.093 H 
ATOM     31  C6  BDP d 303      15.237  36.695  45.208  0.00  0.00     0.206 C 
ATOM     32  O4  BDP d 303      15.982  34.276  43.653  0.00  0.00    -0.348 OA
ATOM     33  O3  BDP d 303      15.940  31.741  44.913  0.00  0.00    -0.390 OA
ATOM     34  C3  BDP d 303      16.268  32.955  45.609  0.00  0.00     0.092 C 
ATOM     35  O6B BDP d 303      14.011  36.607  44.990  0.00  0.00    -0.646 OA
ATOM     36  C4  BDP d 303      15.548  34.147  44.964  0.00  0.00     0.103 C 
ATOM     37  C2  BDP d 303      15.797  32.841  47.046  0.00  0.00     0.110 C 
ATOM     38  O6A BDP d 303      16.009  37.668  45.046  0.00  0.00    -0.646 OA
ATOM     39  C1  BDP d 303      16.126  34.134  47.776  0.00  0.00     0.160 C 
ATOM     40  C5  BDP d 303      15.909  35.436  45.750  0.00  0.00     0.152 C 
ATOM     41  O5  BDP d 303      15.499  35.278  47.137  0.00  0.00    -0.340 OA
ATOM     42  O2  BDP d 303      16.460  31.757  47.704  0.00  0.00    -0.388 OA
ATOM     43  H   BDP d 303      16.400  30.996  45.329  0.00  0.00     0.210 HD
ATOM     44  H   BDP d 303      17.326  33.104  45.565  0.00  0.00     0.091 H 
ATOM     45  H   BDP d 303      14.489  33.994  44.983  0.00  0.00     0.092 H 
ATOM     46  H   BDP d 303      14.742  32.664  47.055  0.00  0.00     0.094 H 
ATOM     47  H   BDP d 303      17.187  34.265  47.752  0.00  0.00     0.133 H 
ATOM     48  H   BDP d 303      16.967  35.563  45.649  0.00  0.00     0.104 H 
ATOM     49  H   BDP d 303      17.417  31.913  47.701  0.00  0.00     0.210 HD
ATOM     50  C1  ASG d 306      11.277  40.557  38.850  0.00  0.00     0.151 C 
ATOM     51  C4  ASG d 306       8.557  41.634  38.650  0.00  0.00     0.089 C 
ATOM     52  C6  ASG d 306       7.841  39.442  39.723  0.00  0.00     0.043 C 
ATOM     53  S   ASG d 306       6.887  41.541  36.690  0.00  0.00     0.252 S 
ATOM     54  O4  ASG d 306       8.264  41.112  37.353  0.00  0.00    -0.249 OA
ATOM     55  OSB ASG d 306       6.787  40.934  35.375  0.00  0.00    -0.572 OA
ATOM     56  OSA ASG d 306       5.791  41.078  37.521  0.00  0.00    -0.572 OA
ATOM     57  C3  ASG d 306       9.756  42.640  38.516  0.00  0.00    -0.014 C 
ATOM     58  C7  ASG d 306      13.034  42.487  36.692  0.00  0.00     0.214 C 
ATOM     59  N   ASG d 306      12.242  42.551  37.841  0.00  0.00    -0.352 N 
ATOM     60  C8  ASG d 306      14.250  43.375  36.776  0.00  0.00    -0.003 C 
ATOM     61  C2  ASG d 306      10.993  41.736  37.969  0.00  0.00     0.062 C 
ATOM     62  O5  ASG d 306      10.099  39.730  39.002  0.00  0.00    -0.349 OA
ATOM     63  O6  ASG d 306       8.271  38.314  40.484  0.00  0.00    -0.398 OA
ATOM     64  O7  ASG d 306      12.789  41.786  35.715  0.00  0.00    -0.274 OA
ATOM     65  OSC ASG d 306       6.831  42.981  36.571  0.00  0.00    -0.572 OA
ATOM     66  C5  ASG d 306       8.962  40.447  39.573  0.00  0.00     0.088 C 
ATOM     67  H   ASG d 306      11.560  40.900  39.823  0.00  0.00     0.132 H 
ATOM     68  H   ASG d 306       7.709  42.138  39.066  0.00  0.00     0.089 H 
ATOM     69  H   ASG d 306       7.532  39.113  38.752  0.00  0.00     0.078 H 
ATOM     70  H   ASG d 306       7.026  39.910  40.235  0.00  0.00     0.078 H 
ATOM     71  H   ASG d 306       9.995  43.071  39.465  0.00  0.00     0.040 H 
ATOM     72  H   ASG d 306       9.529  43.454  37.861  0.00  0.00     0.040 H 
ATOM     73  H   ASG d 306      12.510  43.143  38.581  0.00  0.00     0.163 HD
ATOM     74  H   ASG d 306      14.253  43.888  37.716  0.00  0.00     0.040 H 
ATOM     75  H   ASG d 306      14.226  44.089  35.980  0.00  0.00     0.040 H 
ATOM     76  H   ASG d 306      15.134  42.778  36.693  0.00  0.00     0.040 H 
ATOM     77  H   ASG d 306      10.691  41.375  37.007  0.00  0.00     0.080 H 
ATOM     78  H   ASG d 306       9.011  37.880  40.030  0.00  0.00     0.209 HD
ATOM     79  H   ASG d 306       9.202  40.870  40.526  0.00  0.00     0.090 H 
ATOM     80  C5  BDP d 305      14.364  38.776  39.000  0.00  0.00     0.152 C 
ATOM     81  O6B BDP d 305      14.310  39.427  41.255  0.00  0.00    -0.646 OA
ATOM     82  C6  BDP d 305      14.598  39.800  40.102  0.00  0.00     0.206 C 
ATOM     83  O4  BDP d 305      12.310  39.821  38.278  0.00  0.00    -0.348 OA
ATOM     84  O3  BDP d 305      11.370  37.393  37.137  0.00  0.00    -0.390 OA
ATOM     85  C2  BDP d 305      13.263  36.257  38.054  0.00  0.00     0.110 C 
ATOM     86  C1  BDP d 305      14.731  36.422  38.477  0.00  0.00     0.160 C 
ATOM     87  C4  BDP d 305      12.870  38.610  38.635  0.00  0.00     0.103 C 
ATOM     88  O6A BDP d 305      15.052  40.901  39.704  0.00  0.00    -0.646 OA
ATOM     89  C3  BDP d 305      12.739  37.570  37.506  0.00  0.00     0.092 C 
ATOM     90  O2  BDP d 305      13.189  35.220  37.072  0.00  0.00    -0.388 OA
ATOM     91  O5  BDP d 305      14.873  37.488  39.464  0.00  0.00    -0.340 OA
ATOM     92  H   BDP d 305      14.869  39.121  38.121  0.00  0.00     0.104 H 
ATOM     93  H   BDP d 305      11.310  36.735  36.426  0.00  0.00     0.210 HD
ATOM     94  H   BDP d 305      12.657  35.987  38.893  0.00  0.00     0.094 H 
ATOM     95  H   BDP d 305      15.296  36.676  37.605  0.00  0.00     0.133 H 
ATOM     96  H   BDP d 305      12.333  38.261  39.491  0.00  0.00     0.092 H 
ATOM     97  H   BDP d 305      13.283  37.895  36.645  0.00  0.00     0.091 H 
ATOM     98  H   BDP d 305      13.737  35.459  36.308  0.00  0.00     0.210 HD
ATOM     99  O6B BDP d 301      21.375  36.018  52.727  0.00  0.00    -0.646 OA
ATOM    100  C6  BDP d 301      20.714  35.018  53.083  0.00  0.00     0.206 C 
ATOM    101  O6A BDP d 301      20.698  33.860  52.611  0.00  0.00    -0.646 OA
ATOM    102  O5  BDP d 301      20.541  35.876  55.327  0.00  0.00    -0.340 OA
ATOM    103  C5  BDP d 301      19.787  35.237  54.272  0.00  0.00     0.152 C 
ATOM    104  C3  BDP d 301      17.705  36.254  55.226  0.00  0.00     0.092 C 
ATOM    105  C1  BDP d 301      19.749  36.121  56.529  0.00  0.00     0.156 C 
ATOM    106  O1  BDP d 301      20.680  36.741  57.542  0.00  0.00    -0.368 OA
ATOM    107  C4  BDP d 301      18.541  36.056  53.936  0.00  0.00     0.103 C 
ATOM    108  C2  BDP d 301      18.553  36.985  56.255  0.00  0.00     0.110 C 
ATOM    109  O2  BDP d 301      17.842  37.173  57.476  0.00  0.00    -0.388 OA
ATOM    110  O4  BDP d 301      17.821  35.251  53.075  0.00  0.00    -0.348 OA
ATOM    111  O3  BDP d 301      16.545  37.038  54.939  0.00  0.00    -0.390 OA
ATOM    112  H   BDP d 301      19.426  34.279  54.582  0.00  0.00     0.104 H 
ATOM    113  H   BDP d 301      17.402  35.299  55.602  0.00  0.00     0.091 H 
ATOM    114  H   BDP d 301      19.343  35.205  56.904  0.00  0.00     0.133 H 
ATOM    115  H   BDP d 301      21.039  37.570  57.188  0.00  0.00     0.212 HD
ATOM    116  H   BDP d 301      18.778  37.013  53.522  0.00  0.00     0.092 H 
ATOM    117  H   BDP d 301      18.825  37.949  55.877  0.00  0.00     0.094 H 
ATOM    118  H   BDP d 301      17.585  36.310  57.836  0.00  0.00     0.210 HD
ATOM    119  H   BDP d 301      16.817  37.904  54.596  0.00  0.00     0.210 HD
ATOM    120  OSC ASG d 304      15.988  30.856  38.111  0.00  0.00    -0.572 OA
ATOM    121  O3  ASG d 304      15.216  35.218  39.030  0.00  0.00    -0.348 OA
ATOM    122  C5  ASG d 304      13.394  32.993  41.468  0.00  0.00     0.090 C 
ATOM    123  C6  ASG d 304      12.783  31.613  41.448  0.00  0.00     0.043 C 
ATOM    124  O4  ASG d 304      15.028  32.447  39.756  0.00  0.00    -0.246 OA
ATOM    125  C7  ASG d 304      17.586  36.362  41.922  0.00  0.00     0.214 C 
ATOM    126  C8  ASG d 304      17.950  37.826  42.018  0.00  0.00    -0.003 C 
ATOM    127  S   ASG d 304      14.824  31.678  38.373  0.00  0.00     0.252 S 
ATOM    128  OSB ASG d 304      13.642  30.837  38.445  0.00  0.00    -0.572 OA
ATOM    129  N   ASG d 304      16.277  36.161  41.510  0.00  0.00    -0.349 N 
ATOM    130  C4  ASG d 304      14.014  33.400  40.111  0.00  0.00     0.114 C 
ATOM    131  C3  ASG d 304      14.629  34.807  40.255  0.00  0.00     0.094 C 
ATOM    132  C1  ASG d 304      15.029  34.336  42.648  0.00  0.00     0.154 C 
ATOM    133  O7  ASG d 304      18.370  35.465  42.185  0.00  0.00    -0.274 OA
ATOM    134  O6  ASG d 304      11.866  31.451  42.532  0.00  0.00    -0.398 OA
ATOM    135  O5  ASG d 304      14.412  33.022  42.513  0.00  0.00    -0.349 OA
ATOM    136  C2  ASG d 304      15.690  34.790  41.342  0.00  0.00     0.087 C 
ATOM    137  OSA ASG d 304      14.653  32.642  37.299  0.00  0.00    -0.572 OA
ATOM    138  H   ASG d 304      12.617  33.700  41.664  0.00  0.00     0.090 H 
ATOM    139  H   ASG d 304      13.560  30.883  41.534  0.00  0.00     0.078 H 
ATOM    140  H   ASG d 304      12.253  31.485  40.528  0.00  0.00     0.078 H 
ATOM    141  H   ASG d 304      17.107  38.423  41.741  0.00  0.00     0.040 H 
ATOM    142  H   ASG d 304      18.767  38.035  41.359  0.00  0.00     0.040 H 
ATOM    143  H   ASG d 304      18.236  38.058  43.023  0.00  0.00     0.040 H 
ATOM    144  H   ASG d 304      15.713  36.946  41.321  0.00  0.00     0.163 HD
ATOM    145  H   ASG d 304      13.268  33.416  39.344  0.00  0.00     0.093 H 
ATOM    146  H   ASG d 304      13.854  35.497  40.516  0.00  0.00     0.091 H 
ATOM    147  H   ASG d 304      14.266  35.047  42.889  0.00  0.00     0.132 H 
ATOM    148  H   ASG d 304      12.337  31.565  43.373  0.00  0.00     0.209 HD
ATOM    149  H   ASG d 304      16.480  34.118  41.078  0.00  0.00     0.084 H 
ENDROOT
TORSDOF 38
ENDMDL
MODEL 5
REMARK VINA RESULT:      -8.8      3.661     14.900
REMARK  0 active torsions:
REMARK  status: ('A' for Active; 'I' for Inactive)
REMARK       I    between atoms: C6_2  and  C5_74 
REMARK       I    between atoms: C1_3  and  O4_24 
REMARK       I    between atoms: O6_4  and  C6_26 
REMARK       I    between atoms: C5_5  and  C6_12 
REMARK       I    between atoms: C4_6  and  O4_22 
REMARK       I    between atoms: C6_8  and  C5_90 
REMARK       I    between atoms: C6_8  and  O6_83 
REMARK       I    between atoms: O3_11  and  C3_60 
REMARK       I    between atoms: O3_11  and  C1_29 
REMARK       I    between atoms: C5_13  and  C6_18 
REMARK       I    between atoms: O4_14  and  C4_88 
REMARK       I    between atoms: O4_14  and  S_15 
REMARK       I    between atoms: C6_16  and  C5_28 
REMARK       I    between atoms: S_17  and  O4_22 
REMARK       I    between atoms: C6_18  and  O6_66 
REMARK       I    between atoms: O4_20  and  C4_46 
REMARK       I    between atoms: O4_20  and  C1_61 
REMARK       I    between atoms: O4_21  and  C4_54 
REMARK       I    between atoms: O4_21  and  S_40 
REMARK       I    between atoms: O4_24  and  C4_35 
REMARK       I    between atoms: O3_25  and  C3_48 
REMARK       I    between atoms: C6_26  and  C5_50 
REMARK       I    between atoms: C2_27  and  O2_55 
REMARK       I    between atoms: O3_31  and  C3_37 
REMARK       I    between atoms: C2_32  and  N_72 
REMARK       I    between atoms: C7_33  and  C8_39 
REMARK       I    between atoms: C7_33  and  N_52 
REMARK       I    between atoms: C1_34  and  O4_86 
REMARK       I    between atoms: C3_36  and  O3_87 
REMARK       I    between atoms: C2_47  and  O2_85 
REMARK       I    between atoms: N_52  and  C2_71 
REMARK       I    between atoms: C3_53  and  O3_81 
REMARK       I    between atoms: C1_56  and  O3_81 
REMARK       I    between atoms: C7_57  and  C8_64 
REMARK       I    between atoms: C7_57  and  N_63 
REMARK       I    between atoms: C8_58  and  C7_73 
REMARK       I    between atoms: C1_59  and  O1_68 
REMARK       I    between atoms: N_63  and  C2_67 
REMARK       I    between atoms: C4_69  and  O4_86 
REMARK       I    between atoms: N_72  and  C7_73 
REMARK       I    between atoms: C2_77  and  O2_82 
ROOT
ATOM      1  OSB ASG d 302       6.633  33.371  49.998  0.00  0.00    -0.572 OA
ATOM      2  O6  ASG d 302       5.683  37.133  47.934  0.00  0.00    -0.398 OA
ATOM      3  O4  ASG d 302       6.588  35.188  51.696  0.00  0.00    -0.246 OA
ATOM      4  S   ASG d 302       7.044  33.692  51.351  0.00  0.00     0.252 S 
ATOM      5  C6  ASG d 302       6.109  36.277  48.990  0.00  0.00     0.043 C 
ATOM      6  C2  ASG d 302       6.457  37.673  53.029  0.00  0.00     0.087 C 
ATOM      7  C1  ASG d 302       5.631  38.405  51.981  0.00  0.00     0.154 C 
ATOM      8  O5  ASG d 302       5.342  37.566  50.840  0.00  0.00    -0.349 OA
ATOM      9  C5  ASG d 302       6.540  37.084  50.187  0.00  0.00     0.090 C 
ATOM     10  O7  ASG d 302       5.940  37.196  55.821  0.00  0.00    -0.274 OA
ATOM     11  C3  ASG d 302       7.742  37.214  52.364  0.00  0.00     0.094 C 
ATOM     12  C8  ASG d 302       6.871  39.312  56.473  0.00  0.00    -0.003 C 
ATOM     13  OSA ASG d 302       8.486  33.569  51.464  0.00  0.00    -0.572 OA
ATOM     14  N   ASG d 302       6.763  38.590  54.167  0.00  0.00    -0.349 N 
ATOM     15  C7  ASG d 302       6.467  38.245  55.483  0.00  0.00     0.214 C 
ATOM     16  OSC ASG d 302       6.409  32.779  52.274  0.00  0.00    -0.572 OA
ATOM     17  O3  ASG d 302       8.463  36.498  53.301  0.00  0.00    -0.348 OA
ATOM     18  C4  ASG d 302       7.385  36.279  51.196  0.00  0.00     0.114 C 
ATOM     19  H   ASG d 302       5.410  36.598  47.174  0.00  0.00     0.209 HD
ATOM     20  H   ASG d 302       6.933  35.684  48.651  0.00  0.00     0.078 H 
ATOM     21  H   ASG d 302       5.292  35.647  49.275  0.00  0.00     0.078 H 
ATOM     22  H   ASG d 302       5.918  36.834  53.415  0.00  0.00     0.084 H 
ATOM     23  H   ASG d 302       6.204  39.248  51.655  0.00  0.00     0.132 H 
ATOM     24  H   ASG d 302       7.165  37.882  49.844  0.00  0.00     0.090 H 
ATOM     25  H   ASG d 302       8.306  38.048  52.003  0.00  0.00     0.091 H 
ATOM     26  H   ASG d 302       6.621  38.994  57.463  0.00  0.00     0.040 H 
ATOM     27  H   ASG d 302       6.353  40.221  56.249  0.00  0.00     0.040 H 
ATOM     28  H   ASG d 302       7.926  39.478  56.408  0.00  0.00     0.040 H 
ATOM     29  H   ASG d 302       7.184  39.460  53.983  0.00  0.00     0.163 HD
ATOM     30  H   ASG d 302       8.272  35.899  50.734  0.00  0.00     0.093 H 
ATOM     31  C6  BDP d 303      12.590  37.249  51.166  0.00  0.00     0.206 C 
ATOM     32  O4  BDP d 303      13.844  37.077  53.854  0.00  0.00    -0.348 OA
ATOM     33  O3  BDP d 303      12.355  36.027  56.022  0.00  0.00    -0.390 OA
ATOM     34  C3  BDP d 303      11.754  36.765  54.946  0.00  0.00     0.092 C 
ATOM     35  O6B BDP d 303      12.896  36.091  50.815  0.00  0.00    -0.646 OA
ATOM     36  C4  BDP d 303      12.565  36.578  53.656  0.00  0.00     0.103 C 
ATOM     37  C2  BDP d 303      10.355  36.233  54.704  0.00  0.00     0.110 C 
ATOM     38  O6A BDP d 303      12.782  38.338  50.579  0.00  0.00    -0.646 OA
ATOM     39  C1  BDP d 303       9.727  37.001  53.551  0.00  0.00     0.160 C 
ATOM     40  C5  BDP d 303      11.879  37.371  52.512  0.00  0.00     0.152 C 
ATOM     41  O5  BDP d 303      10.520  36.881  52.340  0.00  0.00    -0.340 OA
ATOM     42  O2  BDP d 303       9.546  36.409  55.871  0.00  0.00    -0.388 OA
ATOM     43  H   BDP d 303      11.834  36.154  56.830  0.00  0.00     0.210 HD
ATOM     44  H   BDP d 303      11.728  37.802  55.209  0.00  0.00     0.091 H 
ATOM     45  H   BDP d 303      12.616  35.540  53.399  0.00  0.00     0.092 H 
ATOM     46  H   BDP d 303      10.413  35.190  54.472  0.00  0.00     0.094 H 
ATOM     47  H   BDP d 303       9.679  38.032  53.829  0.00  0.00     0.133 H 
ATOM     48  H   BDP d 303      11.908  38.401  52.802  0.00  0.00     0.104 H 
ATOM     49  H   BDP d 303       9.488  37.353  56.086  0.00  0.00     0.210 HD
ATOM     50  C1  ASG d 306      19.582  35.295  46.886  0.00  0.00     0.151 C 
ATOM     51  C4  ASG d 306      20.099  33.198  44.903  0.00  0.00     0.089 C 
ATOM     52  C6  ASG d 306      18.882  31.663  46.526  0.00  0.00     0.043 C 
ATOM     53  S   ASG d 306      22.168  31.693  44.596  0.00  0.00     0.252 S 
ATOM     54  O4  ASG d 306      21.359  32.777  45.427  0.00  0.00    -0.249 OA
ATOM     55  OSB ASG d 306      23.423  31.420  45.273  0.00  0.00    -0.572 OA
ATOM     56  OSA ASG d 306      21.386  30.472  44.515  0.00  0.00    -0.572 OA
ATOM     57  C3  ASG d 306      20.233  34.694  44.441  0.00  0.00    -0.014 C 
ATOM     58  C7  ASG d 306      21.767  37.734  46.022  0.00  0.00     0.214 C 
ATOM     59  N   ASG d 306      20.696  36.983  45.532  0.00  0.00    -0.352 N 
ATOM     60  C8  ASG d 306      21.672  39.192  45.649  0.00  0.00    -0.003 C 
ATOM     61  C2  ASG d 306      20.591  35.514  45.800  0.00  0.00     0.062 C 
ATOM     62  O5  ASG d 306      19.446  33.887  47.190  0.00  0.00    -0.349 OA
ATOM     63  O6  ASG d 306      17.986  31.604  47.634  0.00  0.00    -0.398 OA
ATOM     64  O7  ASG d 306      22.690  37.278  46.691  0.00  0.00    -0.274 OA
ATOM     65  OSC ASG d 306      22.428  32.193  43.264  0.00  0.00    -0.572 OA
ATOM     66  C5  ASG d 306      19.038  33.087  46.037  0.00  0.00     0.088 C 
ATOM     67  H   ASG d 306      18.627  35.651  46.562  0.00  0.00     0.132 H 
ATOM     68  H   ASG d 306      19.802  32.591  44.073  0.00  0.00     0.089 H 
ATOM     69  H   ASG d 306      19.839  31.289  46.827  0.00  0.00     0.078 H 
ATOM     70  H   ASG d 306      18.484  31.069  45.730  0.00  0.00     0.078 H 
ATOM     71  H   ASG d 306      19.313  35.043  44.022  0.00  0.00     0.040 H 
ATOM     72  H   ASG d 306      20.979  34.818  43.685  0.00  0.00     0.040 H 
ATOM     73  H   ASG d 306      19.997  37.428  45.000  0.00  0.00     0.163 HD
ATOM     74  H   ASG d 306      20.788  39.354  45.068  0.00  0.00     0.040 H 
ATOM     75  H   ASG d 306      22.532  39.471  45.077  0.00  0.00     0.040 H 
ATOM     76  H   ASG d 306      21.627  39.785  46.539  0.00  0.00     0.040 H 
ATOM     77  H   ASG d 306      21.535  35.134  46.132  0.00  0.00     0.080 H 
ATOM     78  H   ASG d 306      18.336  32.139  48.363  0.00  0.00     0.209 HD
ATOM     79  H   ASG d 306      18.113  33.434  45.625  0.00  0.00     0.090 H 
ATOM     80  C5  BDP d 305      19.018  37.466  49.660  0.00  0.00     0.152 C 
ATOM     81  O6B BDP d 305      16.847  37.579  48.774  0.00  0.00    -0.646 OA
ATOM     82  C6  BDP d 305      18.003  38.030  48.675  0.00  0.00     0.206 C 
ATOM     83  O4  BDP d 305      19.997  35.992  48.017  0.00  0.00    -0.348 OA
ATOM     84  O3  BDP d 305      20.973  34.243  50.035  0.00  0.00    -0.390 OA
ATOM     85  C2  BDP d 305      19.804  35.527  51.678  0.00  0.00     0.110 C 
ATOM     86  C1  BDP d 305      19.284  36.930  52.024  0.00  0.00     0.160 C 
ATOM     87  C4  BDP d 305      19.483  36.036  49.298  0.00  0.00     0.103 C 
ATOM     88  O6A BDP d 305      18.467  38.883  47.879  0.00  0.00    -0.646 OA
ATOM     89  C3  BDP d 305      20.514  35.562  50.339  0.00  0.00     0.092 C 
ATOM     90  O2  BDP d 305      20.686  35.101  52.721  0.00  0.00    -0.388 OA
ATOM     91  O5  BDP d 305      18.394  37.430  50.980  0.00  0.00    -0.340 OA
ATOM     92  H   BDP d 305      19.883  38.096  49.635  0.00  0.00     0.104 H 
ATOM     93  H   BDP d 305      21.621  33.964  50.701  0.00  0.00     0.210 HD
ATOM     94  H   BDP d 305      18.994  34.833  51.601  0.00  0.00     0.094 H 
ATOM     95  H   BDP d 305      20.128  37.582  52.105  0.00  0.00     0.133 H 
ATOM     96  H   BDP d 305      18.643  35.374  49.318  0.00  0.00     0.092 H 
ATOM     97  H   BDP d 305      21.357  36.221  50.345  0.00  0.00     0.091 H 
ATOM     98  H   BDP d 305      21.423  35.727  52.796  0.00  0.00     0.210 HD
ATOM     99  O6B BDP d 301       4.577  42.383  53.193  0.00  0.00    -0.646 OA
ATOM    100  C6  BDP d 301       4.182  41.378  53.824  0.00  0.00     0.206 C 
ATOM    101  O6A BDP d 301       4.541  40.941  54.939  0.00  0.00    -0.646 OA
ATOM    102  O5  BDP d 301       2.050  41.460  52.705  0.00  0.00    -0.340 OA
ATOM    103  C5  BDP d 301       3.096  40.561  53.136  0.00  0.00     0.152 C 
ATOM    104  C3  BDP d 301       2.412  38.986  51.309  0.00  0.00     0.092 C 
ATOM    105  C1  BDP d 301       0.943  40.776  52.041  0.00  0.00     0.156 C 
ATOM    106  O1  BDP d 301      -0.077  41.835  51.698  0.00  0.00    -0.368 OA
ATOM    107  C4  BDP d 301       3.606  39.732  51.957  0.00  0.00     0.103 C 
ATOM    108  C2  BDP d 301       1.393  40.010  50.832  0.00  0.00     0.110 C 
ATOM    109  O2  BDP d 301       0.256  39.378  50.249  0.00  0.00    -0.388 OA
ATOM    110  O4  BDP d 301       4.442  38.794  52.530  0.00  0.00    -0.348 OA
ATOM    111  O3  BDP d 301       2.863  38.223  50.189  0.00  0.00    -0.390 OA
ATOM    112  H   BDP d 301       2.726  39.851  53.845  0.00  0.00     0.104 H 
ATOM    113  H   BDP d 301       1.971  38.330  52.030  0.00  0.00     0.091 H 
ATOM    114  H   BDP d 301       0.516  40.039  52.688  0.00  0.00     0.133 H 
ATOM    115  H   BDP d 301       0.326  42.494  51.112  0.00  0.00     0.212 HD
ATOM    116  H   BDP d 301       4.089  40.331  51.213  0.00  0.00     0.092 H 
ATOM    117  H   BDP d 301       1.838  40.641  50.092  0.00  0.00     0.094 H 
ATOM    118  H   BDP d 301      -0.164  38.799  50.905  0.00  0.00     0.210 HD
ATOM    119  H   BDP d 301       3.264  38.816  49.534  0.00  0.00     0.210 HD
ATOM    120  OSC ASG d 304      19.016  35.991  57.658  0.00  0.00    -0.572 OA
ATOM    121  O3  ASG d 304      18.581  36.900  53.249  0.00  0.00    -0.348 OA
ATOM    122  C5  ASG d 304      16.095  34.279  54.327  0.00  0.00     0.090 C 
ATOM    123  C6  ASG d 304      16.032  33.191  55.370  0.00  0.00     0.043 C 
ATOM    124  O4  ASG d 304      17.612  35.647  55.642  0.00  0.00    -0.246 OA
ATOM    125  C7  ASG d 304      15.632  39.417  52.739  0.00  0.00     0.214 C 
ATOM    126  C8  ASG d 304      15.648  40.306  51.516  0.00  0.00    -0.003 C 
ATOM    127  S   ASG d 304      18.927  35.217  56.437  0.00  0.00     0.252 S 
ATOM    128  OSB ASG d 304      18.870  33.802  56.760  0.00  0.00    -0.572 OA
ATOM    129  N   ASG d 304      16.126  38.146  52.483  0.00  0.00    -0.349 N 
ATOM    130  C4  ASG d 304      17.431  35.058  54.344  0.00  0.00     0.114 C 
ATOM    131  C3  ASG d 304      17.374  36.156  53.262  0.00  0.00     0.094 C 
ATOM    132  C1  ASG d 304      14.922  36.256  53.562  0.00  0.00     0.154 C 
ATOM    133  O7  ASG d 304      15.224  39.790  53.826  0.00  0.00    -0.274 OA
ATOM    134  O6  ASG d 304      15.014  32.241  55.049  0.00  0.00    -0.398 OA
ATOM    135  O5  ASG d 304      14.980  35.192  54.557  0.00  0.00    -0.349 OA
ATOM    136  C2  ASG d 304      16.208  37.089  53.546  0.00  0.00     0.087 C 
ATOM    137  OSA ASG d 304      20.099  35.466  55.612  0.00  0.00    -0.572 OA
ATOM    138  H   ASG d 304      16.030  33.822  53.362  0.00  0.00     0.090 H 
ATOM    139  H   ASG d 304      15.816  33.628  56.322  0.00  0.00     0.078 H 
ATOM    140  H   ASG d 304      16.975  32.687  55.399  0.00  0.00     0.078 H 
ATOM    141  H   ASG d 304      16.047  39.764  50.685  0.00  0.00     0.040 H 
ATOM    142  H   ASG d 304      16.256  41.165  51.707  0.00  0.00     0.040 H 
ATOM    143  H   ASG d 304      14.650  40.621  51.291  0.00  0.00     0.040 H 
ATOM    144  H   ASG d 304      16.433  37.930  51.573  0.00  0.00     0.163 HD
ATOM    145  H   ASG d 304      18.253  34.403  54.142  0.00  0.00     0.093 H 
ATOM    146  H   ASG d 304      17.242  35.692  52.307  0.00  0.00     0.091 H 
ATOM    147  H   ASG d 304      14.811  35.812  52.594  0.00  0.00     0.132 H 
ATOM    148  H   ASG d 304      14.153  32.688  55.020  0.00  0.00     0.209 HD
ATOM    149  H   ASG d 304      16.345  37.573  54.490  0.00  0.00     0.084 H 
ENDROOT
TORSDOF 38
ENDMDL
MODEL 6
REMARK VINA RESULT:      -8.2      2.018      2.334
REMARK  0 active torsions:
REMARK  status: ('A' for Active; 'I' for Inactive)
REMARK       I    between atoms: C6_2  and  C5_74 
REMARK       I    between atoms: C1_3  and  O4_24 
REMARK       I    between atoms: O6_4  and  C6_26 
REMARK       I    between atoms: C5_5  and  C6_12 
REMARK       I    between atoms: C4_6  and  O4_22 
REMARK       I    between atoms: C6_8  and  C5_90 
REMARK       I    between atoms: C6_8  and  O6_83 
REMARK       I    between atoms: O3_11  and  C3_60 
REMARK       I    between atoms: O3_11  and  C1_29 
REMARK       I    between atoms: C5_13  and  C6_18 
REMARK       I    between atoms: O4_14  and  C4_88 
REMARK       I    between atoms: O4_14  and  S_15 
REMARK       I    between atoms: C6_16  and  C5_28 
REMARK       I    between atoms: S_17  and  O4_22 
REMARK       I    between atoms: C6_18  and  O6_66 
REMARK       I    between atoms: O4_20  and  C4_46 
REMARK       I    between atoms: O4_20  and  C1_61 
REMARK       I    between atoms: O4_21  and  C4_54 
REMARK       I    between atoms: O4_21  and  S_40 
REMARK       I    between atoms: O4_24  and  C4_35 
REMARK       I    between atoms: O3_25  and  C3_48 
REMARK       I    between atoms: C6_26  and  C5_50 
REMARK       I    between atoms: C2_27  and  O2_55 
REMARK       I    between atoms: O3_31  and  C3_37 
REMARK       I    between atoms: C2_32  and  N_72 
REMARK       I    between atoms: C7_33  and  C8_39 
REMARK       I    between atoms: C7_33  and  N_52 
REMARK       I    between atoms: C1_34  and  O4_86 
REMARK       I    between atoms: C3_36  and  O3_87 
REMARK       I    between atoms: C2_47  and  O2_85 
REMARK       I    between atoms: N_52  and  C2_71 
REMARK       I    between atoms: C3_53  and  O3_81 
REMARK       I    between atoms: C1_56  and  O3_81 
REMARK       I    between atoms: C7_57  and  C8_64 
REMARK       I    between atoms: C7_57  and  N_63 
REMARK       I    between atoms: C8_58  and  C7_73 
REMARK       I    between atoms: C1_59  and  O1_68 
REMARK       I    between atoms: N_63  and  C2_67 
REMARK       I    between atoms: C4_69  and  O4_86 
REMARK       I    between atoms: N_72  and  C7_73 
REMARK       I    between atoms: C2_77  and  O2_82 
ROOT
ATOM      1  OSB ASG d 302      19.333  40.951  44.625  0.00  0.00    -0.572 OA
ATOM      2  O6  ASG d 302      18.104  38.890  40.944  0.00  0.00    -0.398 OA
ATOM      3  O4  ASG d 302      20.449  38.730  44.581  0.00  0.00    -0.246 OA
ATOM      4  S   ASG d 302      20.026  39.995  45.466  0.00  0.00     0.252 S 
ATOM      5  C6  ASG d 302      18.675  39.053  42.239  0.00  0.00     0.043 C 
ATOM      6  C2  ASG d 302      21.293  36.113  43.938  0.00  0.00     0.087 C 
ATOM      7  C1  ASG d 302      21.006  36.184  42.445  0.00  0.00     0.154 C 
ATOM      8  O5  ASG d 302      20.434  37.458  42.067  0.00  0.00    -0.349 OA
ATOM      9  C5  ASG d 302      19.195  37.738  42.759  0.00  0.00     0.090 C 
ATOM     10  O7  ASG d 302      23.741  35.560  45.349  0.00  0.00    -0.274 OA
ATOM     11  C3  ASG d 302      19.985  36.351  44.670  0.00  0.00     0.094 C 
ATOM     12  C8  ASG d 302      23.405  33.185  45.235  0.00  0.00    -0.003 C 
ATOM     13  OSA ASG d 302      19.155  39.579  46.550  0.00  0.00    -0.572 OA
ATOM     14  N   ASG d 302      21.844  34.770  44.286  0.00  0.00    -0.349 N 
ATOM     15  C7  ASG d 302      23.044  34.629  44.978  0.00  0.00     0.214 C 
ATOM     16  OSC ASG d 302      21.215  40.609  46.012  0.00  0.00    -0.572 OA
ATOM     17  O3  ASG d 302      20.258  36.345  46.025  0.00  0.00    -0.348 OA
ATOM     18  C4  ASG d 302      19.448  37.738  44.280  0.00  0.00     0.114 C 
ATOM     19  H   ASG d 302      17.775  39.745  40.626  0.00  0.00     0.209 HD
ATOM     20  H   ASG d 302      17.928  39.425  42.908  0.00  0.00     0.078 H 
ATOM     21  H   ASG d 302      19.489  39.744  42.172  0.00  0.00     0.078 H 
ATOM     22  H   ASG d 302      22.015  36.851  44.219  0.00  0.00     0.084 H 
ATOM     23  H   ASG d 302      20.306  35.409  42.217  0.00  0.00     0.132 H 
ATOM     24  H   ASG d 302      18.452  36.990  42.579  0.00  0.00     0.090 H 
ATOM     25  H   ASG d 302      19.265  35.599  44.422  0.00  0.00     0.091 H 
ATOM     26  H   ASG d 302      24.332  33.139  45.767  0.00  0.00     0.040 H 
ATOM     27  H   ASG d 302      23.504  32.671  44.301  0.00  0.00     0.040 H 
ATOM     28  H   ASG d 302      22.636  32.723  45.817  0.00  0.00     0.040 H 
ATOM     29  H   ASG d 302      21.346  33.963  44.020  0.00  0.00     0.163 HD
ATOM     30  H   ASG d 302      18.548  37.957  44.817  0.00  0.00     0.093 H 
ATOM     31  C6  BDP d 303      15.853  35.208  47.233  0.00  0.00     0.206 C 
ATOM     32  O4  BDP d 303      17.012  33.855  49.610  0.00  0.00    -0.348 OA
ATOM     33  O3  BDP d 303      19.702  34.363  50.330  0.00  0.00    -0.390 OA
ATOM     34  C3  BDP d 303      19.244  34.367  48.968  0.00  0.00     0.092 C 
ATOM     35  O6B BDP d 303      15.496  36.237  47.841  0.00  0.00    -0.646 OA
ATOM     36  C4  BDP d 303      17.767  34.782  48.908  0.00  0.00     0.103 C 
ATOM     37  C2  BDP d 303      20.051  35.380  48.179  0.00  0.00     0.110 C 
ATOM     38  O6A BDP d 303      15.192  34.453  46.483  0.00  0.00    -0.646 OA
ATOM     39  C1  BDP d 303      19.551  35.398  46.744  0.00  0.00     0.160 C 
ATOM     40  C5  BDP d 303      17.310  34.794  47.424  0.00  0.00     0.152 C 
ATOM     41  O5  BDP d 303      18.138  35.729  46.678  0.00  0.00    -0.340 OA
ATOM     42  O2  BDP d 303      21.437  35.024  48.181  0.00  0.00    -0.388 OA
ATOM     43  H   BDP d 303      20.635  34.100  50.356  0.00  0.00     0.210 HD
ATOM     44  H   BDP d 303      19.361  33.385  48.561  0.00  0.00     0.091 H 
ATOM     45  H   BDP d 303      17.638  35.754  49.335  0.00  0.00     0.092 H 
ATOM     46  H   BDP d 303      19.936  36.344  48.629  0.00  0.00     0.094 H 
ATOM     47  H   BDP d 303      19.694  34.421  46.332  0.00  0.00     0.133 H 
ATOM     48  H   BDP d 303      17.411  33.789  47.071  0.00  0.00     0.104 H 
ATOM     49  H   BDP d 303      21.547  34.151  47.774  0.00  0.00     0.210 HD
ATOM     50  C1  ASG d 306       8.195  36.304  50.577  0.00  0.00     0.151 C 
ATOM     51  C4  ASG d 306       6.579  38.725  50.926  0.00  0.00     0.089 C 
ATOM     52  C6  ASG d 306       8.730  39.778  51.782  0.00  0.00     0.043 C 
ATOM     53  S   ASG d 306       5.105  39.451  52.911  0.00  0.00     0.252 S 
ATOM     54  O4  ASG d 306       6.160  38.456  52.265  0.00  0.00    -0.249 OA
ATOM     55  OSB ASG d 306       4.790  38.997  54.254  0.00  0.00    -0.572 OA
ATOM     56  OSA ASG d 306       5.680  40.783  52.974  0.00  0.00    -0.572 OA
ATOM     57  C3  ASG d 306       6.012  37.592  49.997  0.00  0.00    -0.014 C 
ATOM     58  C7  ASG d 306       5.873  33.853  50.312  0.00  0.00     0.214 C 
ATOM     59  N   ASG d 306       6.297  35.045  49.720  0.00  0.00    -0.352 N 
ATOM     60  C8  ASG d 306       5.529  32.791  49.298  0.00  0.00    -0.003 C 
ATOM     61  C2  ASG d 306       6.700  36.224  50.549  0.00  0.00     0.062 C 
ATOM     62  O5  ASG d 306       8.639  37.427  51.374  0.00  0.00    -0.349 OA
ATOM     63  O6  ASG d 306      10.152  39.676  51.815  0.00  0.00    -0.398 OA
ATOM     64  O7  ASG d 306       5.790  33.667  51.523  0.00  0.00    -0.274 OA
ATOM     65  OSC ASG d 306       3.904  39.478  52.107  0.00  0.00    -0.572 OA
ATOM     66  C5  ASG d 306       8.135  38.710  50.890  0.00  0.00     0.088 C 
ATOM     67  H   ASG d 306       8.563  36.446  49.583  0.00  0.00     0.132 H 
ATOM     68  H   ASG d 306       6.221  39.676  50.591  0.00  0.00     0.089 H 
ATOM     69  H   ASG d 306       8.346  39.661  52.775  0.00  0.00     0.078 H 
ATOM     70  H   ASG d 306       8.464  40.739  51.392  0.00  0.00     0.078 H 
ATOM     71  H   ASG d 306       6.287  37.767  48.978  0.00  0.00     0.040 H 
ATOM     72  H   ASG d 306       4.944  37.546  50.021  0.00  0.00     0.040 H 
ATOM     73  H   ASG d 306       6.332  35.111  48.738  0.00  0.00     0.163 HD
ATOM     74  H   ASG d 306       5.677  33.180  48.312  0.00  0.00     0.040 H 
ATOM     75  H   ASG d 306       4.506  32.501  49.418  0.00  0.00     0.040 H 
ATOM     76  H   ASG d 306       6.161  31.940  49.445  0.00  0.00     0.040 H 
ATOM     77  H   ASG d 306       6.347  36.103  51.553  0.00  0.00     0.080 H 
ATOM     78  H   ASG d 306      10.406  38.809  52.167  0.00  0.00     0.209 HD
ATOM     79  H   ASG d 306       8.418  38.886  49.873  0.00  0.00     0.090 H 
ATOM     80  C5  BDP d 305      10.420  33.515  50.587  0.00  0.00     0.152 C 
ATOM     81  O6B BDP d 305      11.210  34.493  48.604  0.00  0.00    -0.646 OA
ATOM     82  C6  BDP d 305      10.322  33.767  49.089  0.00  0.00     0.206 C 
ATOM     83  O4  BDP d 305       8.688  35.115  51.108  0.00  0.00    -0.348 OA
ATOM     84  O3  BDP d 305       9.682  35.469  53.747  0.00  0.00    -0.390 OA
ATOM     85  C2  BDP d 305      11.559  34.094  53.199  0.00  0.00     0.110 C 
ATOM     86  C1  BDP d 305      12.035  32.928  52.318  0.00  0.00     0.160 C 
ATOM     87  C4  BDP d 305       9.972  34.728  51.435  0.00  0.00     0.103 C 
ATOM     88  O6A BDP d 305       9.347  33.209  48.529  0.00  0.00    -0.646 OA
ATOM     89  C3  BDP d 305      10.093  34.371  52.929  0.00  0.00     0.092 C 
ATOM     90  O2  BDP d 305      11.776  33.745  54.568  0.00  0.00    -0.388 OA
ATOM     91  O5  BDP d 305      11.814  33.218  50.904  0.00  0.00    -0.340 OA
ATOM     92  H   BDP d 305       9.766  32.703  50.826  0.00  0.00     0.104 H 
ATOM     93  H   BDP d 305       9.766  35.224  54.682  0.00  0.00     0.210 HD
ATOM     94  H   BDP d 305      12.108  34.984  52.974  0.00  0.00     0.094 H 
ATOM     95  H   BDP d 305      11.470  32.061  52.589  0.00  0.00     0.133 H 
ATOM     96  H   BDP d 305      10.610  35.562  51.226  0.00  0.00     0.092 H 
ATOM     97  H   BDP d 305       9.474  33.530  53.155  0.00  0.00     0.091 H 
ATOM     98  H   BDP d 305      11.281  32.937  54.778  0.00  0.00     0.210 HD
ATOM     99  O6B BDP d 301      22.242  32.649  40.355  0.00  0.00    -0.646 OA
ATOM    100  C6  BDP d 301      23.064  33.380  40.950  0.00  0.00     0.206 C 
ATOM    101  O6A BDP d 301      23.686  33.184  42.016  0.00  0.00    -0.646 OA
ATOM    102  O5  BDP d 301      23.658  34.465  38.882  0.00  0.00    -0.340 OA
ATOM    103  C5  BDP d 301      23.358  34.714  40.274  0.00  0.00     0.152 C 
ATOM    104  C3  BDP d 301      22.613  37.021  39.639  0.00  0.00     0.092 C 
ATOM    105  C1  BDP d 301      23.972  35.682  38.137  0.00  0.00     0.156 C 
ATOM    106  O1  BDP d 301      24.305  35.254  36.729  0.00  0.00    -0.368 OA
ATOM    107  C4  BDP d 301      22.222  35.729  40.401  0.00  0.00     0.103 C 
ATOM    108  C2  BDP d 301      22.849  36.677  38.176  0.00  0.00     0.110 C 
ATOM    109  O2  BDP d 301      23.238  37.826  37.429  0.00  0.00    -0.388 OA
ATOM    110  O4  BDP d 301      22.172  36.023  41.750  0.00  0.00    -0.348 OA
ATOM    111  O3  BDP d 301      21.554  37.977  39.726  0.00  0.00    -0.390 OA
ATOM    112  H   BDP d 301      24.194  35.154  40.776  0.00  0.00     0.104 H 
ATOM    113  H   BDP d 301      23.499  37.434  40.073  0.00  0.00     0.091 H 
ATOM    114  H   BDP d 301      24.802  36.189  38.582  0.00  0.00     0.133 H 
ATOM    115  H   BDP d 301      23.543  34.796  36.341  0.00  0.00     0.212 HD
ATOM    116  H   BDP d 301      21.296  35.361  40.014  0.00  0.00     0.092 H 
ATOM    117  H   BDP d 301      21.948  36.291  37.748  0.00  0.00     0.094 H 
ATOM    118  H   BDP d 301      24.055  38.193  37.801  0.00  0.00     0.210 HD
ATOM    119  H   BDP d 301      20.749  37.604  39.334  0.00  0.00     0.210 HD
ATOM    120  OSC ASG d 304      16.454  31.538  55.670  0.00  0.00    -0.572 OA
ATOM    121  O3  ASG d 304      13.410  32.690  52.528  0.00  0.00    -0.348 OA
ATOM    122  C5  ASG d 304      16.109  35.308  52.802  0.00  0.00     0.090 C 
ATOM    123  C6  ASG d 304      17.019  35.836  53.883  0.00  0.00     0.043 C 
ATOM    124  O4  ASG d 304      15.938  33.110  53.821  0.00  0.00    -0.246 OA
ATOM    125  C7  ASG d 304      14.779  31.720  48.995  0.00  0.00     0.214 C 
ATOM    126  C8  ASG d 304      13.786  31.451  47.887  0.00  0.00    -0.003 C 
ATOM    127  S   ASG d 304      15.683  32.722  55.348  0.00  0.00     0.252 S 
ATOM    128  OSB ASG d 304      16.090  33.816  56.211  0.00  0.00    -0.572 OA
ATOM    129  N   ASG d 304      14.376  32.745  49.839  0.00  0.00    -0.349 N 
ATOM    130  C4  ASG d 304      15.156  34.197  53.301  0.00  0.00     0.114 C 
ATOM    131  C3  ASG d 304      14.296  33.717  52.113  0.00  0.00     0.094 C 
ATOM    132  C1  ASG d 304      16.149  34.318  50.592  0.00  0.00     0.154 C 
ATOM    133  O7  ASG d 304      15.820  31.097  49.120  0.00  0.00    -0.274 OA
ATOM    134  O6  ASG d 304      17.551  37.111  53.520  0.00  0.00    -0.398 OA
ATOM    135  O5  ASG d 304      16.941  34.804  51.715  0.00  0.00    -0.349 OA
ATOM    136  C2  ASG d 304      15.201  33.190  51.012  0.00  0.00     0.087 C 
ATOM    137  OSA ASG d 304      14.269  32.457  55.554  0.00  0.00    -0.572 OA
ATOM    138  H   ASG d 304      15.483  36.110  52.472  0.00  0.00     0.090 H 
ATOM    139  H   ASG d 304      17.826  35.149  54.030  0.00  0.00     0.078 H 
ATOM    140  H   ASG d 304      16.455  35.943  54.786  0.00  0.00     0.078 H 
ATOM    141  H   ASG d 304      12.955  32.119  47.982  0.00  0.00     0.040 H 
ATOM    142  H   ASG d 304      13.441  30.441  47.955  0.00  0.00     0.040 H 
ATOM    143  H   ASG d 304      14.259  31.603  46.939  0.00  0.00     0.040 H 
ATOM    144  H   ASG d 304      13.519  33.196  49.662  0.00  0.00     0.163 HD
ATOM    145  H   ASG d 304      14.517  34.567  54.075  0.00  0.00     0.093 H 
ATOM    146  H   ASG d 304      13.723  34.543  51.747  0.00  0.00     0.091 H 
ATOM    147  H   ASG d 304      15.551  35.125  50.223  0.00  0.00     0.132 H 
ATOM    148  H   ASG d 304      18.066  37.025  52.701  0.00  0.00     0.209 HD
ATOM    149  H   ASG d 304      15.762  32.350  51.364  0.00  0.00     0.084 H 
ENDROOT
TORSDOF 38
ENDMDL
MODEL 7
REMARK VINA RESULT:      -8.2      6.371     12.569
REMARK  0 active torsions:
REMARK  status: ('A' for Active; 'I' for Inactive)
REMARK       I    between atoms: C6_2  and  C5_74 
REMARK       I    between atoms: C1_3  and  O4_24 
REMARK       I    between atoms: O6_4  and  C6_26 
REMARK       I    between atoms: C5_5  and  C6_12 
REMARK       I    between atoms: C4_6  and  O4_22 
REMARK       I    between atoms: C6_8  and  C5_90 
REMARK       I    between atoms: C6_8  and  O6_83 
REMARK       I    between atoms: O3_11  and  C3_60 
REMARK       I    between atoms: O3_11  and  C1_29 
REMARK       I    between atoms: C5_13  and  C6_18 
REMARK       I    between atoms: O4_14  and  C4_88 
REMARK       I    between atoms: O4_14  and  S_15 
REMARK       I    between atoms: C6_16  and  C5_28 
REMARK       I    between atoms: S_17  and  O4_22 
REMARK       I    between atoms: C6_18  and  O6_66 
REMARK       I    between atoms: O4_20  and  C4_46 
REMARK       I    between atoms: O4_20  and  C1_61 
REMARK       I    between atoms: O4_21  and  C4_54 
REMARK       I    between atoms: O4_21  and  S_40 
REMARK       I    between atoms: O4_24  and  C4_35 
REMARK       I    between atoms: O3_25  and  C3_48 
REMARK       I    between atoms: C6_26  and  C5_50 
REMARK       I    between atoms: C2_27  and  O2_55 
REMARK       I    between atoms: O3_31  and  C3_37 
REMARK       I    between atoms: C2_32  and  N_72 
REMARK       I    between atoms: C7_33  and  C8_39 
REMARK       I    between atoms: C7_33  and  N_52 
REMARK       I    between atoms: C1_34  and  O4_86 
REMARK       I    between atoms: C3_36  and  O3_87 
REMARK       I    between atoms: C2_47  and  O2_85 
REMARK       I    between atoms: N_52  and  C2_71 
REMARK       I    between atoms: C3_53  and  O3_81 
REMARK       I    between atoms: C1_56  and  O3_81 
REMARK       I    between atoms: C7_57  and  C8_64 
REMARK       I    between atoms: C7_57  and  N_63 
REMARK       I    between atoms: C8_58  and  C7_73 
REMARK       I    between atoms: C1_59  and  O1_68 
REMARK       I    between atoms: N_63  and  C2_67 
REMARK       I    between atoms: C4_69  and  O4_86 
REMARK       I    between atoms: N_72  and  C7_73 
REMARK       I    between atoms: C2_77  and  O2_82 
ROOT
ATOM      1  OSB ASG d 302      11.734  34.123  50.656  0.00  0.00    -0.572 OA
ATOM      2  O6  ASG d 302      13.573  37.841  52.106  0.00  0.00    -0.398 OA
ATOM      3  O4  ASG d 302      14.193  33.939  50.334  0.00  0.00    -0.246 OA
ATOM      4  S   ASG d 302      12.748  33.365  49.949  0.00  0.00     0.252 S 
ATOM      5  C6  ASG d 302      13.479  36.587  51.437  0.00  0.00     0.043 C 
ATOM      6  C2  ASG d 302      16.969  34.430  50.190  0.00  0.00     0.087 C 
ATOM      7  C1  ASG d 302      17.021  35.526  51.244  0.00  0.00     0.154 C 
ATOM      8  O5  ASG d 302      15.710  35.825  51.776  0.00  0.00    -0.349 OA
ATOM      9  C5  ASG d 302      14.781  36.253  50.753  0.00  0.00     0.090 C 
ATOM     10  O7  ASG d 302      18.346  31.905  50.044  0.00  0.00    -0.274 OA
ATOM     11  C3  ASG d 302      16.038  34.897  49.086  0.00  0.00     0.094 C 
ATOM     12  C8  ASG d 302      20.281  32.890  49.017  0.00  0.00    -0.003 C 
ATOM     13  OSA ASG d 302      12.530  33.476  48.518  0.00  0.00    -0.572 OA
ATOM     14  N   ASG d 302      18.337  34.185  49.643  0.00  0.00    -0.349 N 
ATOM     15  C7  ASG d 302      18.898  32.910  49.624  0.00  0.00     0.214 C 
ATOM     16  OSC ASG d 302      12.670  31.976  50.341  0.00  0.00    -0.572 OA
ATOM     17  O3  ASG d 302      15.945  33.876  48.159  0.00  0.00    -0.348 OA
ATOM     18  C4  ASG d 302      14.645  35.145  49.689  0.00  0.00     0.114 C 
ATOM     19  H   ASG d 302      12.729  38.039  52.540  0.00  0.00     0.209 HD
ATOM     20  H   ASG d 302      12.701  36.636  50.705  0.00  0.00     0.078 H 
ATOM     21  H   ASG d 302      13.263  35.826  52.158  0.00  0.00     0.078 H 
ATOM     22  H   ASG d 302      16.612  33.515  50.614  0.00  0.00     0.084 H 
ATOM     23  H   ASG d 302      17.413  36.403  50.774  0.00  0.00     0.132 H 
ATOM     24  H   ASG d 302      15.120  37.125  50.235  0.00  0.00     0.090 H 
ATOM     25  H   ASG d 302      16.403  35.795  48.631  0.00  0.00     0.091 H 
ATOM     26  H   ASG d 302      20.661  31.890  49.029  0.00  0.00     0.040 H 
ATOM     27  H   ASG d 302      20.930  33.524  49.586  0.00  0.00     0.040 H 
ATOM     28  H   ASG d 302      20.234  33.241  48.008  0.00  0.00     0.040 H 
ATOM     29  H   ASG d 302      18.855  34.942  49.287  0.00  0.00     0.163 HD
ATOM     30  H   ASG d 302      13.951  35.431  48.926  0.00  0.00     0.093 H 
ATOM     31  C6  BDP d 303      14.707  36.751  44.643  0.00  0.00     0.206 C 
ATOM     32  O4  BDP d 303      16.028  34.829  42.803  0.00  0.00    -0.348 OA
ATOM     33  O3  BDP d 303      16.706  32.244  43.739  0.00  0.00    -0.390 OA
ATOM     34  C3  BDP d 303      16.716  33.408  44.582  0.00  0.00     0.092 C 
ATOM     35  O6B BDP d 303      13.544  36.362  44.411  0.00  0.00    -0.646 OA
ATOM     36  C4  BDP d 303      15.684  34.431  44.086  0.00  0.00     0.103 C 
ATOM     37  C2  BDP d 303      16.335  32.999  45.992  0.00  0.00     0.110 C 
ATOM     38  O6A BDP d 303      15.184  37.908  44.607  0.00  0.00    -0.646 OA
ATOM     39  C1  BDP d 303      16.326  34.235  46.878  0.00  0.00     0.160 C 
ATOM     40  C5  BDP d 303      15.708  35.665  45.028  0.00  0.00     0.152 C 
ATOM     41  O5  BDP d 303      15.397  35.235  46.383  0.00  0.00    -0.340 OA
ATOM     42  O2  BDP d 303      17.284  32.063  46.513  0.00  0.00    -0.388 OA
ATOM     43  H   BDP d 303      17.361  31.606  44.062  0.00  0.00     0.210 HD
ATOM     44  H   BDP d 303      17.693  33.842  44.561  0.00  0.00     0.091 H 
ATOM     45  H   BDP d 303      14.706  33.996  44.082  0.00  0.00     0.092 H 
ATOM     46  H   BDP d 303      15.367  32.543  45.974  0.00  0.00     0.094 H 
ATOM     47  H   BDP d 303      17.312  34.650  46.875  0.00  0.00     0.133 H 
ATOM     48  H   BDP d 303      16.689  36.084  44.948  0.00  0.00     0.104 H 
ATOM     49  H   BDP d 303      18.163  32.471  46.533  0.00  0.00     0.210 HD
ATOM     50  C1  ASG d 306       9.670  40.137  38.796  0.00  0.00     0.151 C 
ATOM     51  C4  ASG d 306       6.756  40.455  38.720  0.00  0.00     0.089 C 
ATOM     52  C6  ASG d 306       6.687  38.038  39.510  0.00  0.00     0.043 C 
ATOM     53  S   ASG d 306       5.115  40.152  36.756  0.00  0.00     0.252 S 
ATOM     54  O4  ASG d 306       6.576  40.034  37.367  0.00  0.00    -0.249 OA
ATOM     55  OSB ASG d 306       5.144  39.703  35.376  0.00  0.00    -0.572 OA
ATOM     56  OSA ASG d 306       4.209  39.313  37.519  0.00  0.00    -0.572 OA
ATOM     57  C3  ASG d 306       7.637  41.756  38.717  0.00  0.00    -0.014 C 
ATOM     58  C7  ASG d 306      10.780  42.715  36.902  0.00  0.00     0.214 C 
ATOM     59  N   ASG d 306      10.034  42.424  38.047  0.00  0.00    -0.352 N 
ATOM     60  C8  ASG d 306      11.715  43.882  37.101  0.00  0.00    -0.003 C 
ATOM     61  C2  ASG d 306       9.054  41.292  38.067  0.00  0.00     0.062 C 
ATOM     62  O5  ASG d 306       8.763  39.010  38.840  0.00  0.00    -0.349 OA
ATOM     63  O6  ASG d 306       7.426  36.986  40.127  0.00  0.00    -0.398 OA
ATOM     64  O7  ASG d 306      10.704  42.098  35.844  0.00  0.00    -0.274 OA
ATOM     65  OSC ASG d 306       4.671  41.527  36.817  0.00  0.00    -0.572 OA
ATOM     66  C5  ASG d 306       7.492  39.319  39.490  0.00  0.00     0.088 C 
ATOM     67  H   ASG d 306       9.880  40.423  39.805  0.00  0.00     0.132 H 
ATOM     68  H   ASG d 306       5.817  40.658  39.192  0.00  0.00     0.089 H 
ATOM     69  H   ASG d 306       6.449  37.758  38.504  0.00  0.00     0.078 H 
ATOM     70  H   ASG d 306       5.792  38.204  40.072  0.00  0.00     0.078 H 
ATOM     71  H   ASG d 306       7.779  42.118  39.713  0.00  0.00     0.040 H 
ATOM     72  H   ASG d 306       7.180  42.552  38.167  0.00  0.00     0.040 H 
ATOM     73  H   ASG d 306      10.155  42.973  38.856  0.00  0.00     0.163 HD
ATOM     74  H   ASG d 306      11.608  44.259  38.097  0.00  0.00     0.040 H 
ATOM     75  H   ASG d 306      11.477  44.654  36.400  0.00  0.00     0.040 H 
ATOM     76  H   ASG d 306      12.724  43.560  36.948  0.00  0.00     0.040 H 
ATOM     77  H   ASG d 306       8.832  40.983  37.067  0.00  0.00     0.080 H 
ATOM     78  H   ASG d 306       8.242  36.826  39.626  0.00  0.00     0.209 HD
ATOM     79  H   ASG d 306       7.637  39.674  40.490  0.00  0.00     0.090 H 
ATOM     80  C5  BDP d 305      13.125  39.252  38.737  0.00  0.00     0.152 C 
ATOM     81  O6B BDP d 305      12.964  39.587  41.056  0.00  0.00    -0.646 OA
ATOM     82  C6  BDP d 305      13.108  40.160  39.959  0.00  0.00     0.206 C 
ATOM     83  O4  BDP d 305      10.845  39.782  38.142  0.00  0.00    -0.348 OA
ATOM     84  O3  BDP d 305      10.559  37.346  36.704  0.00  0.00    -0.390 OA
ATOM     85  C2  BDP d 305      12.714  36.662  37.482  0.00  0.00     0.110 C 
ATOM     86  C1  BDP d 305      14.095  37.165  37.928  0.00  0.00     0.160 C 
ATOM     87  C4  BDP d 305      11.721  38.734  38.349  0.00  0.00     0.103 C 
ATOM     88  O6A BDP d 305      13.237  41.382  39.703  0.00  0.00    -0.646 OA
ATOM     89  C3  BDP d 305      11.841  37.841  37.099  0.00  0.00     0.092 C 
ATOM     90  O2  BDP d 305      12.892  35.770  36.378  0.00  0.00    -0.388 OA
ATOM     91  O5  BDP d 305      13.974  38.103  39.041  0.00  0.00    -0.340 OA
ATOM     92  H   BDP d 305      13.492  39.823  37.911  0.00  0.00     0.104 H 
ATOM     93  H   BDP d 305      10.657  36.787  35.917  0.00  0.00     0.210 HD
ATOM     94  H   BDP d 305      12.228  36.140  38.278  0.00  0.00     0.094 H 
ATOM     95  H   BDP d 305      14.546  37.666  37.097  0.00  0.00     0.133 H 
ATOM     96  H   BDP d 305      11.322  38.151  39.152  0.00  0.00     0.092 H 
ATOM     97  H   BDP d 305      12.252  38.402  36.287  0.00  0.00     0.091 H 
ATOM     98  H   BDP d 305      13.333  36.238  35.652  0.00  0.00     0.210 HD
ATOM     99  O6B BDP d 301      21.020  36.856  52.047  0.00  0.00    -0.646 OA
ATOM    100  C6  BDP d 301      20.662  35.679  52.272  0.00  0.00     0.206 C 
ATOM    101  O6A BDP d 301      20.944  34.625  51.661  0.00  0.00    -0.646 OA
ATOM    102  O5  BDP d 301      20.332  36.181  54.605  0.00  0.00    -0.340 OA
ATOM    103  C5  BDP d 301      19.746  35.495  53.476  0.00  0.00     0.152 C 
ATOM    104  C3  BDP d 301      17.496  35.788  54.539  0.00  0.00     0.092 C 
ATOM    105  C1  BDP d 301      19.538  36.056  55.825  0.00  0.00     0.156 C 
ATOM    106  O1  BDP d 301      20.298  36.778  56.911  0.00  0.00    -0.368 OA
ATOM    107  C4  BDP d 301      18.317  35.980  53.239  0.00  0.00     0.103 C 
ATOM    108  C2  BDP d 301      18.147  36.592  55.655  0.00  0.00     0.110 C 
ATOM    109  O2  BDP d 301      17.447  36.432  56.887  0.00  0.00    -0.388 OA
ATOM    110  O4  BDP d 301      17.814  35.121  52.281  0.00  0.00    -0.348 OA
ATOM    111  O3  BDP d 301      16.160  36.258  54.347  0.00  0.00    -0.390 OA
ATOM    112  H   BDP d 301      19.665  34.445  53.663  0.00  0.00     0.104 H 
ATOM    113  H   BDP d 301      17.472  34.749  54.793  0.00  0.00     0.091 H 
ATOM    114  H   BDP d 301      19.405  35.026  56.082  0.00  0.00     0.133 H 
ATOM    115  H   BDP d 301      20.410  37.709  56.664  0.00  0.00     0.212 HD
ATOM    116  H   BDP d 301      18.275  37.009  52.948  0.00  0.00     0.092 H 
ATOM    117  H   BDP d 301      18.139  37.631  55.400  0.00  0.00     0.094 H 
ATOM    118  H   BDP d 301      17.443  35.495  57.136  0.00  0.00     0.210 HD
ATOM    119  H   BDP d 301      16.179  37.201  54.116  0.00  0.00     0.210 HD
ATOM    120  OSC ASG d 304      16.790  32.232  36.881  0.00  0.00    -0.572 OA
ATOM    121  O3  ASG d 304      14.902  36.079  38.330  0.00  0.00    -0.348 OA
ATOM    122  C5  ASG d 304      13.817  33.168  40.465  0.00  0.00     0.090 C 
ATOM    123  C6  ASG d 304      13.598  31.687  40.272  0.00  0.00     0.043 C 
ATOM    124  O4  ASG d 304      15.487  33.294  38.706  0.00  0.00    -0.246 OA
ATOM    125  C7  ASG d 304      16.961  37.464  41.352  0.00  0.00     0.214 C 
ATOM    126  C8  ASG d 304      16.922  38.949  41.630  0.00  0.00    -0.003 C 
ATOM    127  S   ASG d 304      15.455  32.671  37.237  0.00  0.00     0.252 S 
ATOM    128  OSB ASG d 304      14.546  31.540  37.199  0.00  0.00    -0.572 OA
ATOM    129  N   ASG d 304      15.743  36.968  40.912  0.00  0.00    -0.349 N 
ATOM    130  C4  ASG d 304      14.265  33.888  39.172  0.00  0.00     0.114 C 
ATOM    131  C3  ASG d 304      14.483  35.381  39.492  0.00  0.00     0.094 C 
ATOM    132  C1  ASG d 304      15.065  34.750  41.810  0.00  0.00     0.154 C 
ATOM    133  O7  ASG d 304      17.965  36.786  41.504  0.00  0.00    -0.274 OA
ATOM    134  O6  ASG d 304      12.791  31.153  41.323  0.00  0.00    -0.398 OA
ATOM    135  O5  ASG d 304      14.820  33.344  41.510  0.00  0.00    -0.349 OA
ATOM    136  C2  ASG d 304      15.541  35.519  40.573  0.00  0.00     0.087 C 
ATOM    137  OSA ASG d 304      15.000  33.676  36.290  0.00  0.00    -0.572 OA
ATOM    138  H   ASG d 304      12.884  33.610  40.744  0.00  0.00     0.090 H 
ATOM    139  H   ASG d 304      14.545  31.189  40.269  0.00  0.00     0.078 H 
ATOM    140  H   ASG d 304      13.095  31.533  39.340  0.00  0.00     0.078 H 
ATOM    141  H   ASG d 304      15.941  39.325  41.425  0.00  0.00     0.040 H 
ATOM    142  H   ASG d 304      17.632  39.448  41.006  0.00  0.00     0.040 H 
ATOM    143  H   ASG d 304      17.164  39.127  42.658  0.00  0.00     0.040 H 
ATOM    144  H   ASG d 304      14.984  37.588  40.819  0.00  0.00     0.163 HD
ATOM    145  H   ASG d 304      13.519  33.794  38.409  0.00  0.00     0.093 H 
ATOM    146  H   ASG d 304      13.559  35.799  39.833  0.00  0.00     0.091 H 
ATOM    147  H   ASG d 304      14.146  35.194  42.134  0.00  0.00     0.132 H 
ATOM    148  H   ASG d 304      13.238  31.288  42.174  0.00  0.00     0.209 HD
ATOM    149  H   ASG d 304      16.474  35.123  40.230  0.00  0.00     0.084 H 
ENDROOT
TORSDOF 38
ENDMDL
MODEL 8
REMARK VINA RESULT:      -7.9      3.783     14.771
REMARK  0 active torsions:
REMARK  status: ('A' for Active; 'I' for Inactive)
REMARK       I    between atoms: C6_2  and  C5_74 
REMARK       I    between atoms: C1_3  and  O4_24 
REMARK       I    between atoms: O6_4  and  C6_26 
REMARK       I    between atoms: C5_5  and  C6_12 
REMARK       I    between atoms: C4_6  and  O4_22 
REMARK       I    between atoms: C6_8  and  C5_90 
REMARK       I    between atoms: C6_8  and  O6_83 
REMARK       I    between atoms: O3_11  and  C3_60 
REMARK       I    between atoms: O3_11  and  C1_29 
REMARK       I    between atoms: C5_13  and  C6_18 
REMARK       I    between atoms: O4_14  and  C4_88 
REMARK       I    between atoms: O4_14  and  S_15 
REMARK       I    between atoms: C6_16  and  C5_28 
REMARK       I    between atoms: S_17  and  O4_22 
REMARK       I    between atoms: C6_18  and  O6_66 
REMARK       I    between atoms: O4_20  and  C4_46 
REMARK       I    between atoms: O4_20  and  C1_61 
REMARK       I    between atoms: O4_21  and  C4_54 
REMARK       I    between atoms: O4_21  and  S_40 
REMARK       I    between atoms: O4_24  and  C4_35 
REMARK       I    between atoms: O3_25  and  C3_48 
REMARK       I    between atoms: C6_26  and  C5_50 
REMARK       I    between atoms: C2_27  and  O2_55 
REMARK       I    between atoms: O3_31  and  C3_37 
REMARK       I    between atoms: C2_32  and  N_72 
REMARK       I    between atoms: C7_33  and  C8_39 
REMARK       I    between atoms: C7_33  and  N_52 
REMARK       I    between atoms: C1_34  and  O4_86 
REMARK       I    between atoms: C3_36  and  O3_87 
REMARK       I    between atoms: C2_47  and  O2_85 
REMARK       I    between atoms: N_52  and  C2_71 
REMARK       I    between atoms: C3_53  and  O3_81 
REMARK       I    between atoms: C1_56  and  O3_81 
REMARK       I    between atoms: C7_57  and  C8_64 
REMARK       I    between atoms: C7_57  and  N_63 
REMARK       I    between atoms: C8_58  and  C7_73 
REMARK       I    between atoms: C1_59  and  O1_68 
REMARK       I    between atoms: N_63  and  C2_67 
REMARK       I    between atoms: C4_69  and  O4_86 
REMARK       I    between atoms: N_72  and  C7_73 
REMARK       I    between atoms: C2_77  and  O2_82 
ROOT
ATOM      1  OSB ASG d 302       7.372  32.492  49.754  0.00  0.00    -0.572 OA
ATOM      2  O6  ASG d 302       6.353  35.926  47.207  0.00  0.00    -0.398 OA
ATOM      3  O4  ASG d 302       7.114  34.485  51.219  0.00  0.00    -0.246 OA
ATOM      4  S   ASG d 302       7.674  32.991  51.081  0.00  0.00     0.252 S 
ATOM      5  C6  ASG d 302       6.756  35.224  48.379  0.00  0.00     0.043 C 
ATOM      6  C2  ASG d 302       6.757  37.094  52.239  0.00  0.00     0.087 C 
ATOM      7  C1  ASG d 302       5.963  37.648  51.064  0.00  0.00     0.154 C 
ATOM      8  O5  ASG d 302       5.798  36.666  50.015  0.00  0.00    -0.349 OA
ATOM      9  C5  ASG d 302       7.061  36.189  49.496  0.00  0.00     0.090 C 
ATOM     10  O7  ASG d 302       6.084  36.909  55.032  0.00  0.00    -0.274 OA
ATOM     11  C3  ASG d 302       8.107  36.643  51.710  0.00  0.00     0.094 C 
ATOM     12  C8  ASG d 302       6.851  39.139  55.482  0.00  0.00    -0.003 C 
ATOM     13  OSA ASG d 302       9.110  32.973  51.293  0.00  0.00    -0.572 OA
ATOM     14  N   ASG d 302       6.936  38.152  53.276  0.00  0.00    -0.349 N 
ATOM     15  C7  ASG d 302       6.573  37.942  54.604  0.00  0.00     0.214 C 
ATOM     16  OSC ASG d 302       7.032  32.152  52.067  0.00  0.00    -0.572 OA
ATOM     17  O3  ASG d 302       8.803  36.086  52.766  0.00  0.00    -0.348 OA
ATOM     18  C4  ASG d 302       7.880  35.560  50.642  0.00  0.00     0.114 C 
ATOM     19  H   ASG d 302       6.161  35.290  46.500  0.00  0.00     0.209 HD
ATOM     20  H   ASG d 302       7.632  34.649  48.163  0.00  0.00     0.078 H 
ATOM     21  H   ASG d 302       5.958  34.581  48.688  0.00  0.00     0.078 H 
ATOM     22  H   ASG d 302       6.241  36.272  52.689  0.00  0.00     0.084 H 
ATOM     23  H   ASG d 302       6.508  38.482  50.675  0.00  0.00     0.132 H 
ATOM     24  H   ASG d 302       7.662  36.981  49.099  0.00  0.00     0.090 H 
ATOM     25  H   ASG d 302       8.647  37.464  51.287  0.00  0.00     0.091 H 
ATOM     26  H   ASG d 302       6.554  38.921  56.487  0.00  0.00     0.040 H 
ATOM     27  H   ASG d 302       6.299  39.982  55.122  0.00  0.00     0.040 H 
ATOM     28  H   ASG d 302       7.897  39.362  55.461  0.00  0.00     0.040 H 
ATOM     29  H   ASG d 302       7.319  39.021  53.015  0.00  0.00     0.163 HD
ATOM     30  H   ASG d 302       8.816  35.186  50.282  0.00  0.00     0.093 H 
ATOM     31  C6  BDP d 303      13.015  36.845  50.806  0.00  0.00     0.206 C 
ATOM     32  O4  BDP d 303      14.095  37.061  53.565  0.00  0.00    -0.348 OA
ATOM     33  O3  BDP d 303      12.526  36.176  55.750  0.00  0.00    -0.390 OA
ATOM     34  C3  BDP d 303      11.958  36.746  54.560  0.00  0.00     0.092 C 
ATOM     35  O6B BDP d 303      13.406  35.676  50.614  0.00  0.00    -0.646 OA
ATOM     36  C4  BDP d 303      12.862  36.463  53.352  0.00  0.00     0.103 C 
ATOM     37  C2  BDP d 303      10.609  36.103  54.300  0.00  0.00     0.110 C 
ATOM     38  O6A BDP d 303      13.184  37.870  50.106  0.00  0.00    -0.646 OA
ATOM     39  C1  BDP d 303      10.018  36.693  53.030  0.00  0.00     0.160 C 
ATOM     40  C5  BDP d 303      12.210  37.076  52.083  0.00  0.00     0.152 C 
ATOM     41  O5  BDP d 303      10.895  36.484  51.891  0.00  0.00    -0.340 OA
ATOM     42  O2  BDP d 303       9.716  36.360  55.388  0.00  0.00    -0.388 OA
ATOM     43  H   BDP d 303      11.947  36.361  56.505  0.00  0.00     0.210 HD
ATOM     44  H   BDP d 303      11.857  37.802  54.697  0.00  0.00     0.091 H 
ATOM     45  H   BDP d 303      12.987  35.408  53.223  0.00  0.00     0.092 H 
ATOM     46  H   BDP d 303      10.741  35.046  54.198  0.00  0.00     0.094 H 
ATOM     47  H   BDP d 303       9.894  37.744  53.180  0.00  0.00     0.133 H 
ATOM     48  H   BDP d 303      12.162  38.132  52.251  0.00  0.00     0.104 H 
ATOM     49  H   BDP d 303       9.592  37.317  55.486  0.00  0.00     0.210 HD
ATOM     50  C1  ASG d 306      20.372  34.857  47.209  0.00  0.00     0.151 C 
ATOM     51  C4  ASG d 306      21.135  32.583  45.523  0.00  0.00     0.089 C 
ATOM     52  C6  ASG d 306      19.901  31.171  47.241  0.00  0.00     0.043 C 
ATOM     53  S   ASG d 306      23.300  31.186  45.519  0.00  0.00     0.252 S 
ATOM     54  O4  ASG d 306      22.379  32.306  46.167  0.00  0.00    -0.249 OA
ATOM     55  OSB ASG d 306      24.520  31.072  46.297  0.00  0.00    -0.572 OA
ATOM     56  OSA ASG d 306      22.594  29.918  45.537  0.00  0.00    -0.572 OA
ATOM     57  C3  ASG d 306      21.216  34.022  44.896  0.00  0.00    -0.014 C 
ATOM     58  C7  ASG d 306      22.471  37.313  46.194  0.00  0.00     0.214 C 
ATOM     59  N   ASG d 306      21.478  36.445  45.733  0.00  0.00    -0.352 N 
ATOM     60  C8  ASG d 306      22.319  38.710  45.646  0.00  0.00    -0.003 C 
ATOM     61  C2  ASG d 306      21.437  35.013  46.167  0.00  0.00     0.062 C 
ATOM     62  O5  ASG d 306      20.294  33.487  47.669  0.00  0.00    -0.349 OA
ATOM     63  O6  ASG d 306      18.937  31.183  48.293  0.00  0.00    -0.398 OA
ATOM     64  O7  ASG d 306      23.371  36.996  46.966  0.00  0.00    -0.274 OA
ATOM     65  OSC ASG d 306      23.619  31.546  44.156  0.00  0.00    -0.572 OA
ATOM     66  C5  ASG d 306      20.009  32.536  46.597  0.00  0.00     0.088 C 
ATOM     67  H   ASG d 306      19.422  35.113  46.789  0.00  0.00     0.132 H 
ATOM     68  H   ASG d 306      20.927  31.868  44.755  0.00  0.00     0.089 H 
ATOM     69  H   ASG d 306      20.854  30.895  47.641  0.00  0.00     0.078 H 
ATOM     70  H   ASG d 306      19.589  30.466  46.499  0.00  0.00     0.078 H 
ATOM     71  H   ASG d 306      20.308  34.262  44.384  0.00  0.00     0.040 H 
ATOM     72  H   ASG d 306      22.002  34.105  44.176  0.00  0.00     0.040 H 
ATOM     73  H   ASG d 306      20.792  36.781  45.112  0.00  0.00     0.163 HD
ATOM     74  H   ASG d 306      21.469  38.749  44.998  0.00  0.00     0.040 H 
ATOM     75  H   ASG d 306      23.199  38.976  45.097  0.00  0.00     0.040 H 
ATOM     76  H   ASG d 306      22.183  39.397  46.455  0.00  0.00     0.040 H 
ATOM     77  H   ASG d 306      22.376  34.734  46.597  0.00  0.00     0.080 H 
ATOM     78  H   ASG d 306      19.208  31.820  48.973  0.00  0.00     0.209 HD
ATOM     79  H   ASG d 306      19.096  32.775  46.092  0.00  0.00     0.090 H 
ATOM     80  C5  BDP d 305      19.506  37.292  49.669  0.00  0.00     0.152 C 
ATOM     81  O6B BDP d 305      17.395  37.166  48.649  0.00  0.00    -0.646 OA
ATOM     82  C6  BDP d 305      18.529  37.674  48.566  0.00  0.00     0.206 C 
ATOM     83  O4  BDP d 305      20.672  35.703  48.273  0.00  0.00    -0.348 OA
ATOM     84  O3  BDP d 305      21.608  34.263  50.537  0.00  0.00    -0.390 OA
ATOM     85  C2  BDP d 305      20.263  35.650  51.945  0.00  0.00     0.110 C 
ATOM     86  C1  BDP d 305      19.644  37.048  52.091  0.00  0.00     0.160 C 
ATOM     87  C4  BDP d 305      20.073  35.862  49.506  0.00  0.00     0.103 C 
ATOM     88  O6A BDP d 305      18.996  38.458  47.703  0.00  0.00    -0.646 OA
ATOM     89  C3  BDP d 305      21.057  35.576  50.656  0.00  0.00     0.092 C 
ATOM     90  O2  BDP d 305      21.096  35.403  53.081  0.00  0.00    -0.388 OA
ATOM     91  O5  BDP d 305      18.799  37.368  50.944  0.00  0.00    -0.340 OA
ATOM     92  H   BDP d 305      20.334  37.968  49.621  0.00  0.00     0.104 H 
ATOM     93  H   BDP d 305      22.224  34.103  51.270  0.00  0.00     0.210 HD
ATOM     94  H   BDP d 305      19.500  34.903  51.903  0.00  0.00     0.094 H 
ATOM     95  H   BDP d 305      20.444  37.757  52.144  0.00  0.00     0.133 H 
ATOM     96  H   BDP d 305      19.271  35.155  49.555  0.00  0.00     0.092 H 
ATOM     97  H   BDP d 305      21.860  36.283  50.634  0.00  0.00     0.091 H 
ATOM     98  H   BDP d 305      21.791  36.079  53.125  0.00  0.00     0.210 HD
ATOM     99  O6B BDP d 301       4.612  41.663  51.732  0.00  0.00    -0.646 OA
ATOM    100  C6  BDP d 301       4.232  40.715  52.453  0.00  0.00     0.206 C 
ATOM    101  O6A BDP d 301       4.540  40.432  53.632  0.00  0.00    -0.646 OA
ATOM    102  O5  BDP d 301       2.178  40.534  51.208  0.00  0.00    -0.340 OA
ATOM    103  C5  BDP d 301       3.241  39.757  51.803  0.00  0.00     0.152 C 
ATOM    104  C3  BDP d 301       2.768  37.944  50.139  0.00  0.00     0.092 C 
ATOM    105  C1  BDP d 301       1.157  39.710  50.565  0.00  0.00     0.156 C 
ATOM    106  O1  BDP d 301       0.105  40.656  50.040  0.00  0.00    -0.368 OA
ATOM    107  C4  BDP d 301       3.874  38.833  50.763  0.00  0.00     0.103 C 
ATOM    108  C2  BDP d 301       1.728  38.840  49.484  0.00  0.00     0.110 C 
ATOM    109  O2  BDP d 301       0.669  38.075  48.913  0.00  0.00    -0.388 OA
ATOM    110  O4  BDP d 301       4.720  38.021  51.492  0.00  0.00    -0.348 OA
ATOM    111  O3  BDP d 301       3.335  37.087  49.145  0.00  0.00    -0.390 OA
ATOM    112  H   BDP d 301       2.865  39.112  52.569  0.00  0.00     0.104 H 
ATOM    113  H   BDP d 301       2.318  37.348  50.905  0.00  0.00     0.091 H 
ATOM    114  H   BDP d 301       0.730  39.027  51.269  0.00  0.00     0.133 H 
ATOM    115  H   BDP d 301       0.508  41.268  49.404  0.00  0.00     0.212 HD
ATOM    116  H   BDP d 301       4.371  39.371  49.984  0.00  0.00     0.092 H 
ATOM    117  H   BDP d 301       2.186  39.409  48.702  0.00  0.00     0.094 H 
ATOM    118  H   BDP d 301       0.239  37.550  49.607  0.00  0.00     0.210 HD
ATOM    119  H   BDP d 301       3.744  37.626  48.450  0.00  0.00     0.210 HD
ATOM    120  OSC ASG d 304      19.056  36.746  57.771  0.00  0.00    -0.572 OA
ATOM    121  O3  ASG d 304      18.865  37.115  53.267  0.00  0.00    -0.348 OA
ATOM    122  C5  ASG d 304      16.462  34.484  54.498  0.00  0.00     0.090 C 
ATOM    123  C6  ASG d 304      16.390  33.520  55.657  0.00  0.00     0.043 C 
ATOM    124  O4  ASG d 304      17.810  36.085  55.730  0.00  0.00    -0.246 OA
ATOM    125  C7  ASG d 304      15.820  39.366  52.288  0.00  0.00     0.214 C 
ATOM    126  C8  ASG d 304      15.867  40.109  50.973  0.00  0.00    -0.003 C 
ATOM    127  S   ASG d 304      19.092  35.833  56.647  0.00  0.00     0.252 S 
ATOM    128  OSB ASG d 304      19.091  34.464  57.131  0.00  0.00    -0.572 OA
ATOM    129  N   ASG d 304      16.400  38.108  52.215  0.00  0.00    -0.349 N 
ATOM    130  C4  ASG d 304      17.748  35.342  54.503  0.00  0.00     0.114 C 
ATOM    131  C3  ASG d 304      17.702  36.303  53.297  0.00  0.00     0.094 C 
ATOM    132  C1  ASG d 304      15.234  36.282  53.436  0.00  0.00     0.154 C 
ATOM    133  O7  ASG d 304      15.321  39.835  53.298  0.00  0.00    -0.274 OA
ATOM    134  O6  ASG d 304      15.450  32.478  55.391  0.00  0.00    -0.398 OA
ATOM    135  O5  ASG d 304      15.285  35.345  54.552  0.00  0.00    -0.349 OA
ATOM    136  C2  ASG d 304      16.470  37.187  53.398  0.00  0.00     0.087 C 
ATOM    137  OSA ASG d 304      20.299  36.059  55.869  0.00  0.00    -0.572 OA
ATOM    138  H   ASG d 304      16.486  33.916  53.592  0.00  0.00     0.090 H 
ATOM    139  H   ASG d 304      16.088  34.049  56.536  0.00  0.00     0.078 H 
ATOM    140  H   ASG d 304      17.356  33.083  55.801  0.00  0.00     0.078 H 
ATOM    141  H   ASG d 304      16.350  39.501  50.236  0.00  0.00     0.040 H 
ATOM    142  H   ASG d 304      16.414  41.020  51.097  0.00  0.00     0.040 H 
ATOM    143  H   ASG d 304      14.871  40.332  50.653  0.00  0.00     0.040 H 
ATOM    144  H   ASG d 304      16.778  37.809  51.357  0.00  0.00     0.163 HD
ATOM    145  H   ASG d 304      18.617  34.721  54.428  0.00  0.00     0.093 H 
ATOM    146  H   ASG d 304      17.660  35.725  52.397  0.00  0.00     0.091 H 
ATOM    147  H   ASG d 304      15.212  35.724  52.524  0.00  0.00     0.132 H 
ATOM    148  H   ASG d 304      14.569  32.863  55.259  0.00  0.00     0.209 HD
ATOM    149  H   ASG d 304      16.516  37.784  54.285  0.00  0.00     0.084 H 
ENDROOT
TORSDOF 38
ENDMDL
MODEL 9
REMARK VINA RESULT:      -7.8      6.464     12.005
REMARK  0 active torsions:
REMARK  status: ('A' for Active; 'I' for Inactive)
REMARK       I    between atoms: C6_2  and  C5_74 
REMARK       I    between atoms: C1_3  and  O4_24 
REMARK       I    between atoms: O6_4  and  C6_26 
REMARK       I    between atoms: C5_5  and  C6_12 
REMARK       I    between atoms: C4_6  and  O4_22 
REMARK       I    between atoms: C6_8  and  C5_90 
REMARK       I    between atoms: C6_8  and  O6_83 
REMARK       I    between atoms: O3_11  and  C3_60 
REMARK       I    between atoms: O3_11  and  C1_29 
REMARK       I    between atoms: C5_13  and  C6_18 
REMARK       I    between atoms: O4_14  and  C4_88 
REMARK       I    between atoms: O4_14  and  S_15 
REMARK       I    between atoms: C6_16  and  C5_28 
REMARK       I    between atoms: S_17  and  O4_22 
REMARK       I    between atoms: C6_18  and  O6_66 
REMARK       I    between atoms: O4_20  and  C4_46 
REMARK       I    between atoms: O4_20  and  C1_61 
REMARK       I    between atoms: O4_21  and  C4_54 
REMARK       I    between atoms: O4_21  and  S_40 
REMARK       I    between atoms: O4_24  and  C4_35 
REMARK       I    between atoms: O3_25  and  C3_48 
REMARK       I    between atoms: C6_26  and  C5_50 
REMARK       I    between atoms: C2_27  and  O2_55 
REMARK       I    between atoms: O3_31  and  C3_37 
REMARK       I    between atoms: C2_32  and  N_72 
REMARK       I    between atoms: C7_33  and  C8_39 
REMARK       I    between atoms: C7_33  and  N_52 
REMARK       I    between atoms: C1_34  and  O4_86 
REMARK       I    between atoms: C3_36  and  O3_87 
REMARK       I    between atoms: C2_47  and  O2_85 
REMARK       I    between atoms: N_52  and  C2_71 
REMARK       I    between atoms: C3_53  and  O3_81 
REMARK       I    between atoms: C1_56  and  O3_81 
REMARK       I    between atoms: C7_57  and  C8_64 
REMARK       I    between atoms: C7_57  and  N_63 
REMARK       I    between atoms: C8_58  and  C7_73 
REMARK       I    between atoms: C1_59  and  O1_68 
REMARK       I    between atoms: N_63  and  C2_67 
REMARK       I    between atoms: C4_69  and  O4_86 
REMARK       I    between atoms: N_72  and  C7_73 
REMARK       I    between atoms: C2_77  and  O2_82 
ROOT
ATOM      1  OSB ASG d 302      13.453  40.477  50.072  0.00  0.00    -0.572 OA
ATOM      2  O6  ASG d 302      15.962  36.871  49.978  0.00  0.00    -0.398 OA
ATOM      3  O4  ASG d 302      12.833  39.060  52.019  0.00  0.00    -0.246 OA
ATOM      4  S   ASG d 302      12.417  40.279  51.066  0.00  0.00     0.252 S 
ATOM      5  C6  ASG d 302      14.895  37.727  50.373  0.00  0.00     0.043 C 
ATOM      6  C2  ASG d 302      12.590  36.979  53.910  0.00  0.00     0.087 C 
ATOM      7  C1  ASG d 302      13.961  36.357  53.683  0.00  0.00     0.154 C 
ATOM      8  O5  ASG d 302      14.698  37.043  52.646  0.00  0.00    -0.349 OA
ATOM      9  C5  ASG d 302      14.005  37.038  51.376  0.00  0.00     0.090 C 
ATOM     10  O7  ASG d 302      11.390  38.041  56.303  0.00  0.00    -0.274 OA
ATOM     11  C3  ASG d 302      11.836  36.925  52.594  0.00  0.00     0.094 C 
ATOM     12  C8  ASG d 302      10.599  35.883  57.001  0.00  0.00    -0.003 C 
ATOM     13  OSA ASG d 302      11.157  39.991  50.406  0.00  0.00    -0.572 OA
ATOM     14  N   ASG d 302      11.853  36.214  54.960  0.00  0.00    -0.349 N 
ATOM     15  C7  ASG d 302      11.312  36.843  56.077  0.00  0.00     0.214 C 
ATOM     16  OSC ASG d 302      12.281  41.477  51.863  0.00  0.00    -0.572 OA
ATOM     17  O3  ASG d 302      10.616  37.544  52.788  0.00  0.00    -0.348 OA
ATOM     18  C4  ASG d 302      12.630  37.717  51.541  0.00  0.00     0.114 C 
ATOM     19  H   ASG d 302      16.523  37.329  49.334  0.00  0.00     0.209 HD
ATOM     20  H   ASG d 302      14.317  37.988  49.511  0.00  0.00     0.078 H 
ATOM     21  H   ASG d 302      15.306  38.606  50.823  0.00  0.00     0.078 H 
ATOM     22  H   ASG d 302      12.686  37.991  54.243  0.00  0.00     0.084 H 
ATOM     23  H   ASG d 302      13.806  35.342  53.384  0.00  0.00     0.132 H 
ATOM     24  H   ASG d 302      13.809  36.047  51.024  0.00  0.00     0.090 H 
ATOM     25  H   ASG d 302      11.706  35.914  52.268  0.00  0.00     0.091 H 
ATOM     26  H   ASG d 302      10.205  36.420  57.838  0.00  0.00     0.040 H 
ATOM     27  H   ASG d 302      11.290  35.142  57.346  0.00  0.00     0.040 H 
ATOM     28  H   ASG d 302       9.799  35.408  56.474  0.00  0.00     0.040 H 
ATOM     29  H   ASG d 302      11.747  35.240  54.859  0.00  0.00     0.163 HD
ATOM     30  H   ASG d 302      12.101  37.739  50.611  0.00  0.00     0.093 H 
ATOM     31  C6  BDP d 303       8.543  35.275  49.222  0.00  0.00     0.206 C 
ATOM     32  O4  BDP d 303       6.001  35.515  50.741  0.00  0.00    -0.348 OA
ATOM     33  O3  BDP d 303       5.852  37.298  52.936  0.00  0.00    -0.390 OA
ATOM     34  C3  BDP d 303       7.056  36.601  52.576  0.00  0.00     0.092 C 
ATOM     35  O6B BDP d 303       8.306  36.218  48.440  0.00  0.00    -0.646 OA
ATOM     36  C4  BDP d 303       7.078  36.327  51.065  0.00  0.00     0.103 C 
ATOM     37  C2  BDP d 303       8.250  37.471  52.915  0.00  0.00     0.110 C 
ATOM     38  O6A BDP d 303       8.882  34.096  48.972  0.00  0.00    -0.646 OA
ATOM     39  C1  BDP d 303       9.522  36.741  52.514  0.00  0.00     0.160 C 
ATOM     40  C5  BDP d 303       8.398  35.591  50.709  0.00  0.00     0.152 C 
ATOM     41  O5  BDP d 303       9.527  36.422  51.097  0.00  0.00    -0.340 OA
ATOM     42  O2  BDP d 303       8.292  37.736  54.320  0.00  0.00    -0.388 OA
ATOM     43  H   BDP d 303       5.849  37.465  53.891  0.00  0.00     0.210 HD
ATOM     44  H   BDP d 303       7.093  35.676  53.112  0.00  0.00     0.091 H 
ATOM     45  H   BDP d 303       7.017  37.246  50.522  0.00  0.00     0.092 H 
ATOM     46  H   BDP d 303       8.167  38.398  52.386  0.00  0.00     0.094 H 
ATOM     47  H   BDP d 303       9.569  35.830  53.071  0.00  0.00     0.133 H 
ATOM     48  H   BDP d 303       8.374  34.661  51.237  0.00  0.00     0.104 H 
ATOM     49  H   BDP d 303       8.368  36.899  54.805  0.00  0.00     0.210 HD
ATOM     50  C1  ASG d 306       4.894  34.361  41.680  0.00  0.00     0.151 C 
ATOM     51  C4  ASG d 306       5.242  35.857  39.183  0.00  0.00     0.089 C 
ATOM     52  C6  ASG d 306       5.097  37.927  40.653  0.00  0.00     0.043 C 
ATOM     53  S   ASG d 306       3.485  36.618  37.458  0.00  0.00     0.252 S 
ATOM     54  O4  ASG d 306       3.855  35.971  38.859  0.00  0.00    -0.249 OA
ATOM     55  OSB ASG d 306       2.042  36.621  37.306  0.00  0.00    -0.572 OA
ATOM     56  OSA ASG d 306       3.978  37.983  37.417  0.00  0.00    -0.572 OA
ATOM     57  C3  ASG d 306       5.623  34.333  39.184  0.00  0.00    -0.014 C 
ATOM     58  C7  ASG d 306       3.969  31.282  40.617  0.00  0.00     0.214 C 
ATOM     59  N   ASG d 306       4.998  32.222  40.525  0.00  0.00    -0.352 N 
ATOM     60  C8  ASG d 306       4.482  29.875  40.794  0.00  0.00    -0.003 C 
ATOM     61  C2  ASG d 306       4.706  33.680  40.359  0.00  0.00     0.062 C 
ATOM     62  O5  ASG d 306       4.617  35.778  41.576  0.00  0.00    -0.349 OA
ATOM     63  O6  ASG d 306       5.206  38.429  41.984  0.00  0.00    -0.398 OA
ATOM     64  O7  ASG d 306       2.772  31.552  40.569  0.00  0.00    -0.274 OA
ATOM     65  OSC ASG d 306       4.090  35.851  36.391  0.00  0.00    -0.572 OA
ATOM     66  C5  ASG d 306       5.463  36.460  40.601  0.00  0.00     0.088 C 
ATOM     67  H   ASG d 306       5.910  34.252  41.996  0.00  0.00     0.132 H 
ATOM     68  H   ASG d 306       5.850  36.378  38.472  0.00  0.00     0.089 H 
ATOM     69  H   ASG d 306       4.089  38.050  40.313  0.00  0.00     0.078 H 
ATOM     70  H   ASG d 306       5.770  38.472  40.025  0.00  0.00     0.078 H 
ATOM     71  H   ASG d 306       6.662  34.204  39.402  0.00  0.00     0.040 H 
ATOM     72  H   ASG d 306       5.452  33.872  38.234  0.00  0.00     0.040 H 
ATOM     73  H   ASG d 306       5.934  31.919  40.570  0.00  0.00     0.163 HD
ATOM     74  H   ASG d 306       5.552  29.885  40.806  0.00  0.00     0.040 H 
ATOM     75  H   ASG d 306       4.139  29.266  39.983  0.00  0.00     0.040 H 
ATOM     76  H   ASG d 306       4.118  29.477  41.718  0.00  0.00     0.040 H 
ATOM     77  H   ASG d 306       3.690  33.817  40.048  0.00  0.00     0.080 H 
ATOM     78  H   ASG d 306       4.600  37.942  42.564  0.00  0.00     0.209 HD
ATOM     79  H   ASG d 306       6.502  36.335  40.826  0.00  0.00     0.090 H 
ATOM     80  C5  BDP d 305       4.157  32.941  44.868  0.00  0.00     0.152 C 
ATOM     81  O6B BDP d 305       6.441  33.323  45.257  0.00  0.00    -0.646 OA
ATOM     82  C6  BDP d 305       5.621  32.544  44.736  0.00  0.00     0.206 C 
ATOM     83  O4  BDP d 305       4.037  33.771  42.604  0.00  0.00    -0.348 OA
ATOM     84  O3  BDP d 305       1.847  35.466  43.245  0.00  0.00    -0.390 OA
ATOM     85  C2  BDP d 305       2.092  34.871  45.548  0.00  0.00     0.110 C 
ATOM     86  C1  BDP d 305       2.545  33.759  46.506  0.00  0.00     0.160 C 
ATOM     87  C4  BDP d 305       3.754  34.091  43.917  0.00  0.00     0.103 C 
ATOM     88  O6A BDP d 305       5.817  31.473  44.111  0.00  0.00    -0.646 OA
ATOM     89  C3  BDP d 305       2.259  34.408  44.114  0.00  0.00     0.092 C 
ATOM     90  O2  BDP d 305       0.727  35.186  45.834  0.00  0.00    -0.388 OA
ATOM     91  O5  BDP d 305       3.930  33.376  46.244  0.00  0.00    -0.340 OA
ATOM     92  H   BDP d 305       3.563  32.090  44.607  0.00  0.00     0.104 H 
ATOM     93  H   BDP d 305       0.904  35.650  43.385  0.00  0.00     0.210 HD
ATOM     94  H   BDP d 305       2.689  35.749  45.680  0.00  0.00     0.094 H 
ATOM     95  H   BDP d 305       1.912  32.911  46.347  0.00  0.00     0.133 H 
ATOM     96  H   BDP d 305       4.326  34.964  44.153  0.00  0.00     0.092 H 
ATOM     97  H   BDP d 305       1.670  33.542  43.897  0.00  0.00     0.091 H 
ATOM     98  H   BDP d 305       0.181  34.394  45.716  0.00  0.00     0.210 HD
ATOM     99  O6B BDP d 301      14.774  33.120  56.377  0.00  0.00    -0.646 OA
ATOM    100  C6  BDP d 301      14.590  34.287  56.790  0.00  0.00     0.206 C 
ATOM    101  O6A BDP d 301      13.610  34.778  57.391  0.00  0.00    -0.646 OA
ATOM    102  O5  BDP d 301      16.965  34.648  56.959  0.00  0.00    -0.340 OA
ATOM    103  C5  BDP d 301      15.731  35.260  56.524  0.00  0.00     0.152 C 
ATOM    104  C3  BDP d 301      17.055  36.641  54.905  0.00  0.00     0.092 C 
ATOM    105  C1  BDP d 301      18.131  35.506  56.763  0.00  0.00     0.156 C 
ATOM    106  O1  BDP d 301      19.320  34.751  57.305  0.00  0.00    -0.368 OA
ATOM    107  C4  BDP d 301      15.838  35.696  55.063  0.00  0.00     0.103 C 
ATOM    108  C2  BDP d 301      18.314  35.896  55.326  0.00  0.00     0.110 C 
ATOM    109  O2  BDP d 301      19.467  36.727  55.226  0.00  0.00    -0.388 OA
ATOM    110  O4  BDP d 301      14.689  36.430  54.837  0.00  0.00    -0.348 OA
ATOM    111  O3  BDP d 301      17.188  37.042  53.540  0.00  0.00    -0.390 OA
ATOM    112  H   BDP d 301      15.529  36.154  57.075  0.00  0.00     0.104 H 
ATOM    113  H   BDP d 301      16.913  37.507  55.517  0.00  0.00     0.091 H 
ATOM    114  H   BDP d 301      18.005  36.432  57.284  0.00  0.00     0.133 H 
ATOM    115  H   BDP d 301      19.420  33.915  56.823  0.00  0.00     0.212 HD
ATOM    116  H   BDP d 301      15.948  34.868  54.394  0.00  0.00     0.092 H 
ATOM    117  H   BDP d 301      18.459  35.048  54.689  0.00  0.00     0.094 H 
ATOM    118  H   BDP d 301      19.356  37.504  55.797  0.00  0.00     0.210 HD
ATOM    119  H   BDP d 301      17.316  36.258  52.984  0.00  0.00     0.210 HD
ATOM    120  OSC ASG d 304      -0.506  35.654  50.955  0.00  0.00    -0.572 OA
ATOM    121  O3  ASG d 304       2.436  34.195  47.844  0.00  0.00    -0.348 OA
ATOM    122  C5  ASG d 304       3.461  37.570  49.177  0.00  0.00     0.090 C 
ATOM    123  C6  ASG d 304       2.764  38.786  49.736  0.00  0.00     0.043 C 
ATOM    124  O4  ASG d 304       1.706  36.055  49.904  0.00  0.00    -0.246 OA
ATOM    125  C7  ASG d 304       5.524  32.603  49.640  0.00  0.00     0.214 C 
ATOM    126  C8  ASG d 304       6.328  31.559  48.900  0.00  0.00    -0.003 C 
ATOM    127  S   ASG d 304       0.123  36.207  49.772  0.00  0.00     0.252 S 
ATOM    128  OSB ASG d 304      -0.231  37.609  49.644  0.00  0.00    -0.572 OA
ATOM    129  N   ASG d 304       5.063  33.614  48.809  0.00  0.00    -0.349 N 
ATOM    130  C4  ASG d 304       2.481  36.448  48.760  0.00  0.00     0.114 C 
ATOM    131  C3  ASG d 304       3.300  35.252  48.233  0.00  0.00     0.094 C 
ATOM    132  C1  ASG d 304       5.153  35.924  49.723  0.00  0.00     0.154 C 
ATOM    133  O7  ASG d 304       5.313  32.551  50.841  0.00  0.00    -0.274 OA
ATOM    134  O6  ASG d 304       3.625  39.925  49.697  0.00  0.00    -0.398 OA
ATOM    135  O5  ASG d 304       4.388  37.074  50.190  0.00  0.00    -0.349 OA
ATOM    136  C2  ASG d 304       4.241  34.761  49.320  0.00  0.00     0.087 C 
ATOM    137  OSA ASG d 304      -0.339  35.493  48.593  0.00  0.00    -0.572 OA
ATOM    138  H   ASG d 304       3.977  37.859  48.287  0.00  0.00     0.090 H 
ATOM    139  H   ASG d 304       2.481  38.594  50.750  0.00  0.00     0.078 H 
ATOM    140  H   ASG d 304       1.898  38.989  49.142  0.00  0.00     0.078 H 
ATOM    141  H   ASG d 304       6.378  31.815  47.862  0.00  0.00     0.040 H 
ATOM    142  H   ASG d 304       5.859  30.604  49.009  0.00  0.00     0.040 H 
ATOM    143  H   ASG d 304       7.318  31.518  49.305  0.00  0.00     0.040 H 
ATOM    144  H   ASG d 304       5.282  33.576  47.850  0.00  0.00     0.163 HD
ATOM    145  H   ASG d 304       1.819  36.791  47.993  0.00  0.00     0.093 H 
ATOM    146  H   ASG d 304       3.864  35.569  47.381  0.00  0.00     0.091 H 
ATOM    147  H   ASG d 304       5.710  36.215  48.857  0.00  0.00     0.132 H 
ATOM    148  H   ASG d 304       4.415  39.751  50.234  0.00  0.00     0.209 HD
ATOM    149  H   ASG d 304       3.682  34.421  50.167  0.00  0.00     0.084 H 
ENDROOT
TORSDOF 38
ENDMDL
MODEL 10
REMARK VINA RESULT:      -7.8      6.739     15.026
REMARK  0 active torsions:
REMARK  status: ('A' for Active; 'I' for Inactive)
REMARK       I    between atoms: C6_2  and  C5_74 
REMARK       I    between atoms: C1_3  and  O4_24 
REMARK       I    between atoms: O6_4  and  C6_26 
REMARK       I    between atoms: C5_5  and  C6_12 
REMARK       I    between atoms: C4_6  and  O4_22 
REMARK       I    between atoms: C6_8  and  C5_90 
REMARK       I    between atoms: C6_8  and  O6_83 
REMARK       I    between atoms: O3_11  and  C3_60 
REMARK       I    between atoms: O3_11  and  C1_29 
REMARK       I    between atoms: C5_13  and  C6_18 
REMARK       I    between atoms: O4_14  and  C4_88 
REMARK       I    between atoms: O4_14  and  S_15 
REMARK       I    between atoms: C6_16  and  C5_28 
REMARK       I    between atoms: S_17  and  O4_22 
REMARK       I    between atoms: C6_18  and  O6_66 
REMARK       I    between atoms: O4_20  and  C4_46 
REMARK       I    between atoms: O4_20  and  C1_61 
REMARK       I    between atoms: O4_21  and  C4_54 
REMARK       I    between atoms: O4_21  and  S_40 
REMARK       I    between atoms: O4_24  and  C4_35 
REMARK       I    between atoms: O3_25  and  C3_48 
REMARK       I    between atoms: C6_26  and  C5_50 
REMARK       I    between atoms: C2_27  and  O2_55 
REMARK       I    between atoms: O3_31  and  C3_37 
REMARK       I    between atoms: C2_32  and  N_72 
REMARK       I    between atoms: C7_33  and  C8_39 
REMARK       I    between atoms: C7_33  and  N_52 
REMARK       I    between atoms: C1_34  and  O4_86 
REMARK       I    between atoms: C3_36  and  O3_87 
REMARK       I    between atoms: C2_47  and  O2_85 
REMARK       I    between atoms: N_52  and  C2_71 
REMARK       I    between atoms: C3_53  and  O3_81 
REMARK       I    between atoms: C1_56  and  O3_81 
REMARK       I    between atoms: C7_57  and  C8_64 
REMARK       I    between atoms: C7_57  and  N_63 
REMARK       I    between atoms: C8_58  and  C7_73 
REMARK       I    between atoms: C1_59  and  O1_68 
REMARK       I    between atoms: N_63  and  C2_67 
REMARK       I    between atoms: C4_69  and  O4_86 
REMARK       I    between atoms: N_72  and  C7_73 
REMARK       I    between atoms: C2_77  and  O2_82 
ROOT
ATOM      1  OSB ASG d 302       7.960  32.012  44.822  0.00  0.00    -0.572 OA
ATOM      2  O6  ASG d 302       7.950  30.125  40.853  0.00  0.00    -0.398 OA
ATOM      3  O4  ASG d 302       7.577  33.791  43.127  0.00  0.00    -0.246 OA
ATOM      4  S   ASG d 302       7.991  33.450  44.636  0.00  0.00     0.252 S 
ATOM      5  C6  ASG d 302       7.985  31.173  41.818  0.00  0.00     0.043 C 
ATOM      6  C2  ASG d 302       7.272  35.260  40.736  0.00  0.00     0.087 C 
ATOM      7  C1  ASG d 302       6.843  34.096  39.853  0.00  0.00     0.154 C 
ATOM      8  O5  ASG d 302       6.827  32.847  40.581  0.00  0.00    -0.349 OA
ATOM      9  C5  ASG d 302       8.119  32.513  41.140  0.00  0.00     0.090 C 
ATOM     10  O7  ASG d 302       5.939  37.740  41.340  0.00  0.00    -0.274 OA
ATOM     11  C3  ASG d 302       8.652  34.941  41.281  0.00  0.00     0.094 C 
ATOM     12  C8  ASG d 302       6.813  38.820  39.381  0.00  0.00    -0.003 C 
ATOM     13  OSA ASG d 302       9.324  33.948  44.916  0.00  0.00    -0.572 OA
ATOM     14  N   ASG d 302       7.312  36.519  39.933  0.00  0.00    -0.349 N 
ATOM     15  C7  ASG d 302       6.624  37.661  40.332  0.00  0.00     0.214 C 
ATOM     16  OSC ASG d 302       7.046  34.070  45.537  0.00  0.00    -0.572 OA
ATOM     17  O3  ASG d 302       9.013  35.971  42.129  0.00  0.00    -0.348 OA
ATOM     18  C4  ASG d 302       8.570  33.638  42.094  0.00  0.00     0.114 C 
ATOM     19  H   ASG d 302       7.864  29.272  41.306  0.00  0.00     0.209 HD
ATOM     20  H   ASG d 302       8.820  31.023  42.469  0.00  0.00     0.078 H 
ATOM     21  H   ASG d 302       7.072  31.158  42.376  0.00  0.00     0.078 H 
ATOM     22  H   ASG d 302       6.578  35.401  41.538  0.00  0.00     0.084 H 
ATOM     23  H   ASG d 302       7.552  34.023  39.055  0.00  0.00     0.132 H 
ATOM     24  H   ASG d 302       8.878  32.434  40.391  0.00  0.00     0.090 H 
ATOM     25  H   ASG d 302       9.362  34.831  40.488  0.00  0.00     0.091 H 
ATOM     26  H   ASG d 302       6.264  39.666  39.736  0.00  0.00     0.040 H 
ATOM     27  H   ASG d 302       6.456  38.545  38.409  0.00  0.00     0.040 H 
ATOM     28  H   ASG d 302       7.852  39.067  39.322  0.00  0.00     0.040 H 
ATOM     29  H   ASG d 302       7.838  36.541  39.101  0.00  0.00     0.163 HD
ATOM     30  H   ASG d 302       9.518  33.409  42.533  0.00  0.00     0.093 H 
ATOM     31  C6  BDP d 303      13.626  35.153  41.672  0.00  0.00     0.206 C 
ATOM     32  O4  BDP d 303      14.038  38.056  42.152  0.00  0.00    -0.348 OA
ATOM     33  O3  BDP d 303      11.910  39.614  43.181  0.00  0.00    -0.390 OA
ATOM     34  C3  BDP d 303      11.705  38.486  42.315  0.00  0.00     0.092 C 
ATOM     35  O6B BDP d 303      13.925  34.795  42.830  0.00  0.00    -0.646 OA
ATOM     36  C4  BDP d 303      12.834  37.462  42.501  0.00  0.00     0.103 C 
ATOM     37  C2  BDP d 303      10.395  37.815  42.681  0.00  0.00     0.110 C 
ATOM     38  O6A BDP d 303      14.066  34.746  40.572  0.00  0.00    -0.646 OA
ATOM     39  C1  BDP d 303      10.189  36.610  41.778  0.00  0.00     0.160 C 
ATOM     40  C5  BDP d 303      12.571  36.251  41.565  0.00  0.00     0.152 C 
ATOM     41  O5  BDP d 303      11.284  35.662  41.900  0.00  0.00    -0.340 OA
ATOM     42  O2  BDP d 303       9.303  38.721  42.500  0.00  0.00    -0.388 OA
ATOM     43  H   BDP d 303      11.192  40.253  43.055  0.00  0.00     0.210 HD
ATOM     44  H   BDP d 303      11.689  38.827  41.302  0.00  0.00     0.091 H 
ATOM     45  H   BDP d 303      12.872  37.134  43.518  0.00  0.00     0.092 H 
ATOM     46  H   BDP d 303      10.433  37.513  43.707  0.00  0.00     0.094 H 
ATOM     47  H   BDP d 303      10.147  36.958  40.768  0.00  0.00     0.133 H 
ATOM     48  H   BDP d 303      12.599  36.633  40.566  0.00  0.00     0.104 H 
ATOM     49  H   BDP d 303       9.263  38.998  41.571  0.00  0.00     0.210 HD
ATOM     50  C1  ASG d 306      21.369  32.832  44.056  0.00  0.00     0.151 C 
ATOM     51  C4  ASG d 306      22.261  30.886  46.059  0.00  0.00     0.089 C 
ATOM     52  C6  ASG d 306      20.510  31.954  47.563  0.00  0.00     0.043 C 
ATOM     53  S   ASG d 306      24.202  31.030  47.748  0.00  0.00     0.252 S 
ATOM     54  O4  ASG d 306      23.280  31.699  46.642  0.00  0.00    -0.249 OA
ATOM     55  OSB ASG d 306      25.184  32.002  48.195  0.00  0.00    -0.572 OA
ATOM     56  OSA ASG d 306      23.380  30.620  48.872  0.00  0.00    -0.572 OA
ATOM     57  C3  ASG d 306      22.643  30.621  44.558  0.00  0.00    -0.014 C 
ATOM     58  C7  ASG d 306      23.901  32.843  41.806  0.00  0.00     0.214 C 
ATOM     59  N   ASG d 306      22.958  32.005  42.407  0.00  0.00    -0.352 N 
ATOM     60  C8  ASG d 306      24.035  32.596  40.324  0.00  0.00    -0.003 C 
ATOM     61  C2  ASG d 306      22.661  32.096  43.872  0.00  0.00     0.062 C 
ATOM     62  O5  ASG d 306      21.038  32.953  45.459  0.00  0.00    -0.349 OA
ATOM     63  O6  ASG d 306      19.332  32.757  47.602  0.00  0.00    -0.398 OA
ATOM     64  O7  ASG d 306      24.553  33.698  42.399  0.00  0.00    -0.274 OA
ATOM     65  OSC ASG d 306      24.873  29.876  47.190  0.00  0.00    -0.572 OA
ATOM     66  C5  ASG d 306      20.914  31.663  46.134  0.00  0.00     0.088 C 
ATOM     67  H   ASG d 306      20.579  32.288  43.581  0.00  0.00     0.132 H 
ATOM     68  H   ASG d 306      22.166  29.953  46.576  0.00  0.00     0.089 H 
ATOM     69  H   ASG d 306      21.307  32.474  48.054  0.00  0.00     0.078 H 
ATOM     70  H   ASG d 306      20.310  31.027  48.059  0.00  0.00     0.078 H 
ATOM     71  H   ASG d 306      21.913  29.996  44.088  0.00  0.00     0.040 H 
ATOM     72  H   ASG d 306      23.582  30.118  44.462  0.00  0.00     0.040 H 
ATOM     73  H   ASG d 306      22.479  31.343  41.858  0.00  0.00     0.163 HD
ATOM     74  H   ASG d 306      23.371  31.809  40.033  0.00  0.00     0.040 H 
ATOM     75  H   ASG d 306      25.042  32.316  40.099  0.00  0.00     0.040 H 
ATOM     76  H   ASG d 306      23.785  33.489  39.790  0.00  0.00     0.040 H 
ATOM     77  H   ASG d 306      23.436  32.641  44.369  0.00  0.00     0.080 H 
ATOM     78  H   ASG d 306      19.501  33.601  47.155  0.00  0.00     0.209 HD
ATOM     79  H   ASG d 306      20.178  31.043  45.666  0.00  0.00     0.090 H 
ATOM     80  C5  BDP d 305      20.212  35.528  42.027  0.00  0.00     0.152 C 
ATOM     81  O6B BDP d 305      18.402  34.086  41.630  0.00  0.00    -0.646 OA
ATOM     82  C6  BDP d 305      19.571  34.356  41.296  0.00  0.00     0.206 C 
ATOM     83  O4  BDP d 305      21.498  34.094  43.483  0.00  0.00    -0.348 OA
ATOM     84  O3  BDP d 305      21.709  36.131  45.453  0.00  0.00    -0.390 OA
ATOM     85  C2  BDP d 305      20.226  37.496  44.166  0.00  0.00     0.110 C 
ATOM     86  C1  BDP d 305      19.744  37.812  42.743  0.00  0.00     0.160 C 
ATOM     87  C4  BDP d 305      20.643  35.178  43.470  0.00  0.00     0.103 C 
ATOM     88  O6A BDP d 305      20.311  33.804  40.445  0.00  0.00    -0.646 OA
ATOM     89  C3  BDP d 305      21.291  36.417  44.117  0.00  0.00     0.092 C 
ATOM     90  O2  BDP d 305      20.734  38.698  44.750  0.00  0.00    -0.388 OA
ATOM     91  O5  BDP d 305      19.235  36.612  42.085  0.00  0.00    -0.340 OA
ATOM     92  H   BDP d 305      21.095  35.804  41.489  0.00  0.00     0.104 H 
ATOM     93  H   BDP d 305      22.113  36.923  45.842  0.00  0.00     0.210 HD
ATOM     94  H   BDP d 305      19.419  37.131  44.765  0.00  0.00     0.094 H 
ATOM     95  H   BDP d 305      20.580  38.185  42.189  0.00  0.00     0.133 H 
ATOM     96  H   BDP d 305      19.782  34.901  44.040  0.00  0.00     0.092 H 
ATOM     97  H   BDP d 305      22.147  36.720  43.551  0.00  0.00     0.091 H 
ATOM     98  H   BDP d 305      21.467  39.034  44.210  0.00  0.00     0.210 HD
ATOM     99  O6B BDP d 301       5.812  35.330  35.877  0.00  0.00    -0.646 OA
ATOM    100  C6  BDP d 301       5.172  35.730  36.875  0.00  0.00     0.206 C 
ATOM    101  O6A BDP d 301       5.160  36.855  37.420  0.00  0.00    -0.646 OA
ATOM    102  O5  BDP d 301       3.465  34.073  36.497  0.00  0.00    -0.340 OA
ATOM    103  C5  BDP d 301       4.267  34.693  37.527  0.00  0.00     0.152 C 
ATOM    104  C3  BDP d 301       4.010  32.610  38.897  0.00  0.00     0.092 C 
ATOM    105  C1  BDP d 301       2.543  33.066  37.016  0.00  0.00     0.156 C 
ATOM    106  O1  BDP d 301       1.754  32.552  35.837  0.00  0.00    -0.368 OA
ATOM    107  C4  BDP d 301       5.025  33.631  38.324  0.00  0.00     0.103 C 
ATOM    108  C2  BDP d 301       3.257  31.964  37.743  0.00  0.00     0.110 C 
ATOM    109  O2  BDP d 301       2.288  31.031  38.214  0.00  0.00    -0.388 OA
ATOM    110  O4  BDP d 301       5.582  34.325  39.381  0.00  0.00    -0.348 OA
ATOM    111  O3  BDP d 301       4.700  31.594  39.627  0.00  0.00    -0.390 OA
ATOM    112  H   BDP d 301       3.652  35.202  38.239  0.00  0.00     0.104 H 
ATOM    113  H   BDP d 301       3.330  33.115  39.550  0.00  0.00     0.091 H 
ATOM    114  H   BDP d 301       1.891  33.497  37.746  0.00  0.00     0.133 H 
ATOM    115  H   BDP d 301       2.359  32.166  35.186  0.00  0.00     0.212 HD
ATOM    116  H   BDP d 301       5.748  33.111  37.731  0.00  0.00     0.092 H 
ATOM    117  H   BDP d 301       3.946  31.440  37.114  0.00  0.00     0.094 H 
ATOM    118  H   BDP d 301       1.652  31.486  38.788  0.00  0.00     0.210 HD
ATOM    119  H   BDP d 301       5.319  31.135  39.037  0.00  0.00     0.210 HD
ATOM    120  OSC ASG d 304      17.797  43.034  44.020  0.00  0.00    -0.572 OA
ATOM    121  O3  ASG d 304      18.720  38.783  42.781  0.00  0.00    -0.348 OA
ATOM    122  C5  ASG d 304      15.825  38.875  45.194  0.00  0.00     0.090 C 
ATOM    123  C6  ASG d 304      15.377  39.753  46.336  0.00  0.00     0.043 C 
ATOM    124  O4  ASG d 304      17.007  40.683  44.082  0.00  0.00    -0.246 OA
ATOM    125  C7  ASG d 304      16.255  37.706  39.942  0.00  0.00     0.214 C 
ATOM    126  C8  ASG d 304      16.692  36.625  38.980  0.00  0.00    -0.003 C 
ATOM    127  S   ASG d 304      18.000  41.770  44.698  0.00  0.00     0.252 S 
ATOM    128  OSB ASG d 304      17.737  41.931  46.117  0.00  0.00    -0.572 OA
ATOM    129  N   ASG d 304      16.697  37.482  41.237  0.00  0.00    -0.349 N 
ATOM    130  C4  ASG d 304      17.158  39.337  44.561  0.00  0.00     0.114 C 
ATOM    131  C3  ASG d 304      17.503  38.389  43.394  0.00  0.00     0.094 C 
ATOM    132  C1  ASG d 304      15.085  38.001  43.059  0.00  0.00     0.154 C 
ATOM    133  O7  ASG d 304      15.583  38.667  39.601  0.00  0.00    -0.274 OA
ATOM    134  O6  ASG d 304      14.421  39.074  47.151  0.00  0.00    -0.398 OA
ATOM    135  O5  ASG d 304      14.769  38.869  44.187  0.00  0.00    -0.349 OA
ATOM    136  C2  ASG d 304      16.385  38.422  42.365  0.00  0.00     0.087 C 
ATOM    137  OSA ASG d 304      19.374  41.332  44.518  0.00  0.00    -0.572 OA
ATOM    138  H   ASG d 304      16.002  37.892  45.576  0.00  0.00     0.090 H 
ATOM    139  H   ASG d 304      14.934  40.643  45.943  0.00  0.00     0.078 H 
ATOM    140  H   ASG d 304      16.229  39.997  46.936  0.00  0.00     0.078 H 
ATOM    141  H   ASG d 304      17.268  35.892  39.504  0.00  0.00     0.040 H 
ATOM    142  H   ASG d 304      17.288  37.058  38.204  0.00  0.00     0.040 H 
ATOM    143  H   ASG d 304      15.830  36.161  38.549  0.00  0.00     0.040 H 
ATOM    144  H   ASG d 304      17.233  36.678  41.423  0.00  0.00     0.163 HD
ATOM    145  H   ASG d 304      17.948  39.312  45.283  0.00  0.00     0.093 H 
ATOM    146  H   ASG d 304      17.613  37.396  43.777  0.00  0.00     0.091 H 
ATOM    147  H   ASG d 304      15.220  37.004  43.424  0.00  0.00     0.132 H 
ATOM    148  H   ASG d 304      13.643  38.848  46.616  0.00  0.00     0.209 HD
ATOM    149  H   ASG d 304      16.283  39.408  41.962  0.00  0.00     0.084 H 
ENDROOT
TORSDOF 38
ENDMDL
MODEL 11
REMARK VINA RESULT:      -7.7      3.586     14.599
REMARK  0 active torsions:
REMARK  status: ('A' for Active; 'I' for Inactive)
REMARK       I    between atoms: C6_2  and  C5_74 
REMARK       I    between atoms: C1_3  and  O4_24 
REMARK       I    between atoms: O6_4  and  C6_26 
REMARK       I    between atoms: C5_5  and  C6_12 
REMARK       I    between atoms: C4_6  and  O4_22 
REMARK       I    between atoms: C6_8  and  C5_90 
REMARK       I    between atoms: C6_8  and  O6_83 
REMARK       I    between atoms: O3_11  and  C3_60 
REMARK       I    between atoms: O3_11  and  C1_29 
REMARK       I    between atoms: C5_13  and  C6_18 
REMARK       I    between atoms: O4_14  and  C4_88 
REMARK       I    between atoms: O4_14  and  S_15 
REMARK       I    between atoms: C6_16  and  C5_28 
REMARK       I    between atoms: S_17  and  O4_22 
REMARK       I    between atoms: C6_18  and  O6_66 
REMARK       I    between atoms: O4_20  and  C4_46 
REMARK       I    between atoms: O4_20  and  C1_61 
REMARK       I    between atoms: O4_21  and  C4_54 
REMARK       I    between atoms: O4_21  and  S_40 
REMARK       I    between atoms: O4_24  and  C4_35 
REMARK       I    between atoms: O3_25  and  C3_48 
REMARK       I    between atoms: C6_26  and  C5_50 
REMARK       I    between atoms: C2_27  and  O2_55 
REMARK       I    between atoms: O3_31  and  C3_37 
REMARK       I    between atoms: C2_32  and  N_72 
REMARK       I    between atoms: C7_33  and  C8_39 
REMARK       I    between atoms: C7_33  and  N_52 
REMARK       I    between atoms: C1_34  and  O4_86 
REMARK       I    between atoms: C3_36  and  O3_87 
REMARK       I    between atoms: C2_47  and  O2_85 
REMARK       I    between atoms: N_52  and  C2_71 
REMARK       I    between atoms: C3_53  and  O3_81 
REMARK       I    between atoms: C1_56  and  O3_81 
REMARK       I    between atoms: C7_57  and  C8_64 
REMARK       I    between atoms: C7_57  and  N_63 
REMARK       I    between atoms: C8_58  and  C7_73 
REMARK       I    between atoms: C1_59  and  O1_68 
REMARK       I    between atoms: N_63  and  C2_67 
REMARK       I    between atoms: C4_69  and  O4_86 
REMARK       I    between atoms: N_72  and  C7_73 
REMARK       I    between atoms: C2_77  and  O2_82 
ROOT
ATOM      1  OSB ASG d 302       9.151  32.354  51.520  0.00  0.00    -0.572 OA
ATOM      2  O6  ASG d 302       6.767  36.038  51.280  0.00  0.00    -0.398 OA
ATOM      3  O4  ASG d 302      10.009  33.936  53.236  0.00  0.00    -0.246 OA
ATOM      4  S   ASG d 302      10.287  32.609  52.384  0.00  0.00     0.252 S 
ATOM      5  C6  ASG d 302       7.840  35.181  51.661  0.00  0.00     0.043 C 
ATOM      6  C2  ASG d 302      10.509  36.190  54.861  0.00  0.00     0.087 C 
ATOM      7  C1  ASG d 302       9.144  36.844  54.701  0.00  0.00     0.154 C 
ATOM      8  O5  ASG d 302       8.285  36.087  53.818  0.00  0.00    -0.349 OA
ATOM      9  C5  ASG d 302       8.847  35.930  52.494  0.00  0.00     0.090 C 
ATOM     10  O7  ASG d 302      11.905  35.329  57.228  0.00  0.00    -0.274 OA
ATOM     11  C3  ASG d 302      11.129  36.074  53.481  0.00  0.00     0.094 C 
ATOM     12  C8  ASG d 302      12.834  37.510  57.612  0.00  0.00    -0.003 C 
ATOM     13  OSA ASG d 302      11.484  32.771  51.580  0.00  0.00    -0.572 OA
ATOM     14  N   ASG d 302      11.372  37.026  55.747  0.00  0.00    -0.349 N 
ATOM     15  C7  ASG d 302      12.001  36.492  56.869  0.00  0.00     0.214 C 
ATOM     16  OSC ASG d 302      10.462  31.494  53.288  0.00  0.00    -0.572 OA
ATOM     17  O3  ASG d 302      12.342  35.426  53.622  0.00  0.00    -0.348 OA
ATOM     18  C4  ASG d 302      10.209  35.213  52.599  0.00  0.00     0.114 C 
ATOM     19  H   ASG d 302       6.130  35.541  50.746  0.00  0.00     0.209 HD
ATOM     20  H   ASG d 302       8.320  34.807  50.781  0.00  0.00     0.078 H 
ATOM     21  H   ASG d 302       7.446  34.372  52.240  0.00  0.00     0.078 H 
ATOM     22  H   ASG d 302      10.413  35.222  55.308  0.00  0.00     0.084 H 
ATOM     23  H   ASG d 302       9.303  37.815  54.281  0.00  0.00     0.132 H 
ATOM     24  H   ASG d 302       9.040  36.870  52.021  0.00  0.00     0.090 H 
ATOM     25  H   ASG d 302      11.261  37.039  53.037  0.00  0.00     0.091 H 
ATOM     26  H   ASG d 302      13.291  37.046  58.461  0.00  0.00     0.040 H 
ATOM     27  H   ASG d 302      12.206  38.313  57.940  0.00  0.00     0.040 H 
ATOM     28  H   ASG d 302      13.593  37.893  56.963  0.00  0.00     0.040 H 
ATOM     29  H   ASG d 302      11.501  37.978  55.533  0.00  0.00     0.163 HD
ATOM     30  H   ASG d 302      10.641  35.072  51.630  0.00  0.00     0.093 H 
ATOM     31  C6  BDP d 303      14.124  37.220  49.652  0.00  0.00     0.206 C 
ATOM     32  O4  BDP d 303      16.795  37.027  50.938  0.00  0.00    -0.348 OA
ATOM     33  O3  BDP d 303      17.102  35.476  53.287  0.00  0.00    -0.390 OA
ATOM     34  C3  BDP d 303      15.892  36.184  52.971  0.00  0.00     0.092 C 
ATOM     35  O6B BDP d 303      14.250  36.192  48.956  0.00  0.00    -0.646 OA
ATOM     36  C4  BDP d 303      15.729  36.301  51.449  0.00  0.00     0.103 C 
ATOM     37  C2  BDP d 303      14.709  35.407  53.514  0.00  0.00     0.110 C 
ATOM     38  O6A BDP d 303      13.801  38.381  49.310  0.00  0.00    -0.646 OA
ATOM     39  C1  BDP d 303      13.429  36.147  53.161  0.00  0.00     0.160 C 
ATOM     40  C5  BDP d 303      14.406  37.054  51.143  0.00  0.00     0.152 C 
ATOM     41  O5  BDP d 303      13.294  36.317  51.725  0.00  0.00    -0.340 OA
ATOM     42  O2  BDP d 303      14.799  35.291  54.937  0.00  0.00    -0.388 OA
ATOM     43  H   BDP d 303      17.194  35.409  54.250  0.00  0.00     0.210 HD
ATOM     44  H   BDP d 303      15.940  37.160  53.406  0.00  0.00     0.091 H 
ATOM     45  H   BDP d 303      15.705  35.328  51.004  0.00  0.00     0.092 H 
ATOM     46  H   BDP d 303      14.708  34.427  53.083  0.00  0.00     0.094 H 
ATOM     47  H   BDP d 303      13.469  37.112  53.619  0.00  0.00     0.133 H 
ATOM     48  H   BDP d 303      14.513  38.032  51.565  0.00  0.00     0.104 H 
ATOM     49  H   BDP d 303      14.799  36.176  55.334  0.00  0.00     0.210 HD
ATOM     50  C1  ASG d 306      17.031  37.188  41.742  0.00  0.00     0.151 C 
ATOM     51  C4  ASG d 306      16.386  35.459  39.464  0.00  0.00     0.089 C 
ATOM     52  C6  ASG d 306      16.608  33.548  41.127  0.00  0.00     0.043 C 
ATOM     53  S   ASG d 306      17.936  34.447  37.671  0.00  0.00     0.252 S 
ATOM     54  O4  ASG d 306      17.729  35.251  39.024  0.00  0.00    -0.249 OA
ATOM     55  OSB ASG d 306      19.356  34.365  37.383  0.00  0.00    -0.572 OA
ATOM     56  OSA ASG d 306      17.396  33.108  37.823  0.00  0.00    -0.572 OA
ATOM     57  C3  ASG d 306      16.059  36.990  39.339  0.00  0.00    -0.014 C 
ATOM     58  C7  ASG d 306      17.949  40.097  40.271  0.00  0.00     0.214 C 
ATOM     59  N   ASG d 306      16.884  39.199  40.379  0.00  0.00    -0.352 N 
ATOM     60  C8  ASG d 306      17.504  41.536  40.344  0.00  0.00    -0.003 C 
ATOM     61  C2  ASG d 306      17.110  37.719  40.343  0.00  0.00     0.062 C 
ATOM     62  O5  ASG d 306      17.250  35.757  41.765  0.00  0.00    -0.349 OA
ATOM     63  O6  ASG d 306      16.615  33.191  42.509  0.00  0.00    -0.398 OA
ATOM     64  O7  ASG d 306      19.125  39.771  40.138  0.00  0.00    -0.274 OA
ATOM     65  OSC ASG d 306      17.254  35.125  36.591  0.00  0.00    -0.572 OA
ATOM     66  C5  ASG d 306      16.287  35.016  40.953  0.00  0.00     0.088 C 
ATOM     67  H   ASG d 306      16.056  37.374  42.139  0.00  0.00     0.132 H 
ATOM     68  H   ASG d 306      15.693  34.894  38.875  0.00  0.00     0.089 H 
ATOM     69  H   ASG d 306      17.572  33.346  40.708  0.00  0.00     0.078 H 
ATOM     70  H   ASG d 306      15.857  32.971  40.628  0.00  0.00     0.078 H 
ATOM     71  H   ASG d 306      15.051  37.186  39.640  0.00  0.00     0.040 H 
ATOM     72  H   ASG d 306      16.149  37.342  38.332  0.00  0.00     0.040 H 
ATOM     73  H   ASG d 306      15.968  39.545  40.480  0.00  0.00     0.163 HD
ATOM     74  H   ASG d 306      16.441  41.574  40.459  0.00  0.00     0.040 H 
ATOM     75  H   ASG d 306      17.784  42.043  39.444  0.00  0.00     0.040 H 
ATOM     76  H   ASG d 306      17.971  42.011  41.181  0.00  0.00     0.040 H 
ATOM     77  H   ASG d 306      18.084  37.507  39.953  0.00  0.00     0.080 H 
ATOM     78  H   ASG d 306      17.292  33.708  42.973  0.00  0.00     0.209 HD
ATOM     79  H   ASG d 306      15.281  35.209  41.262  0.00  0.00     0.090 H 
ATOM     80  C5  BDP d 305      18.130  38.897  44.674  0.00  0.00     0.152 C 
ATOM     81  O6B BDP d 305      15.885  38.657  45.318  0.00  0.00    -0.646 OA
ATOM     82  C6  BDP d 305      16.674  39.342  44.641  0.00  0.00     0.206 C 
ATOM     83  O4  BDP d 305      17.996  37.832  42.511  0.00  0.00    -0.348 OA
ATOM     84  O3  BDP d 305      20.181  36.118  43.118  0.00  0.00    -0.390 OA
ATOM     85  C2  BDP d 305      20.186  36.958  45.356  0.00  0.00     0.110 C 
ATOM     86  C1  BDP d 305      19.868  38.182  46.228  0.00  0.00     0.160 C 
ATOM     87  C4  BDP d 305      18.397  37.637  43.818  0.00  0.00     0.103 C 
ATOM     88  O6A BDP d 305      16.453  40.349  43.926  0.00  0.00    -0.646 OA
ATOM     89  C3  BDP d 305      19.892  37.277  43.904  0.00  0.00     0.092 C 
ATOM     90  O2  BDP d 305      21.562  36.615  45.543  0.00  0.00    -0.388 OA
ATOM     91  O5  BDP d 305      18.478  38.597  46.060  0.00  0.00    -0.340 OA
ATOM     92  H   BDP d 305      18.723  39.689  44.267  0.00  0.00     0.104 H 
ATOM     93  H   BDP d 305      21.126  35.909  43.186  0.00  0.00     0.210 HD
ATOM     94  H   BDP d 305      19.577  36.126  45.639  0.00  0.00     0.094 H 
ATOM     95  H   BDP d 305      20.510  38.981  45.919  0.00  0.00     0.133 H 
ATOM     96  H   BDP d 305      17.822  36.820  44.199  0.00  0.00     0.092 H 
ATOM     97  H   BDP d 305      20.486  38.089  43.539  0.00  0.00     0.091 H 
ATOM     98  H   BDP d 305      22.120  37.366  45.289  0.00  0.00     0.210 HD
ATOM     99  O6B BDP d 301       8.713  40.375  57.098  0.00  0.00    -0.646 OA
ATOM    100  C6  BDP d 301       8.898  39.250  57.613  0.00  0.00     0.206 C 
ATOM    101  O6A BDP d 301       9.916  38.781  58.168  0.00  0.00    -0.646 OA
ATOM    102  O5  BDP d 301       6.540  39.014  58.047  0.00  0.00    -0.340 OA
ATOM    103  C5  BDP d 301       7.704  38.306  57.563  0.00  0.00     0.152 C 
ATOM    104  C3  BDP d 301       6.179  36.825  56.236  0.00  0.00     0.092 C 
ATOM    105  C1  BDP d 301       5.333  38.192  58.056  0.00  0.00     0.156 C 
ATOM    106  O1  BDP d 301       4.229  39.050  58.625  0.00  0.00    -0.368 OA
ATOM    107  C4  BDP d 301       7.438  37.726  56.174  0.00  0.00     0.103 C 
ATOM    108  C2  BDP d 301       4.995  37.663  56.693  0.00  0.00     0.110 C 
ATOM    109  O2  BDP d 301       3.810  36.877  56.794  0.00  0.00    -0.388 OA
ATOM    110  O4  BDP d 301       8.532  36.923  55.920  0.00  0.00    -0.348 OA
ATOM    111  O3  BDP d 301       5.897  36.290  54.941  0.00  0.00    -0.390 OA
ATOM    112  H   BDP d 301       7.930  37.465  58.186  0.00  0.00     0.104 H 
ATOM    113  H   BDP d 301       6.352  36.021  56.921  0.00  0.00     0.091 H 
ATOM    114  H   BDP d 301       5.478  37.319  58.659  0.00  0.00     0.133 H 
ATOM    115  H   BDP d 301       4.111  39.835  58.068  0.00  0.00     0.212 HD
ATOM    116  H   BDP d 301       7.288  38.485  55.435  0.00  0.00     0.092 H 
ATOM    117  H   BDP d 301       4.815  38.446  55.985  0.00  0.00     0.094 H 
ATOM    118  H   BDP d 301       3.951  36.160  57.432  0.00  0.00     0.210 HD
ATOM    119  H   BDP d 301       5.741  37.018  54.318  0.00  0.00     0.210 HD
ATOM    120  OSC ASG d 304      23.282  36.625  50.543  0.00  0.00    -0.572 OA
ATOM    121  O3  ASG d 304      20.096  37.882  47.589  0.00  0.00    -0.348 OA
ATOM    122  C5  ASG d 304      19.096  34.712  49.368  0.00  0.00     0.090 C 
ATOM    123  C6  ASG d 304      19.804  33.531  49.985  0.00  0.00     0.043 C 
ATOM    124  O4  ASG d 304      20.965  36.215  49.758  0.00  0.00    -0.246 OA
ATOM    125  C7  ASG d 304      17.257  39.785  49.491  0.00  0.00     0.214 C 
ATOM    126  C8  ASG d 304      16.419  40.782  48.723  0.00  0.00    -0.003 C 
ATOM    127  S   ASG d 304      22.521  35.981  49.492  0.00  0.00     0.252 S 
ATOM    128  OSB ASG d 304      22.813  34.559  49.482  0.00  0.00    -0.572 OA
ATOM    129  N   ASG d 304      17.599  38.675  48.732  0.00  0.00    -0.349 N 
ATOM    130  C4  ASG d 304      20.067  35.741  48.742  0.00  0.00     0.114 C 
ATOM    131  C3  ASG d 304      19.240  36.911  48.170  0.00  0.00     0.094 C 
ATOM    132  C1  ASG d 304      17.523  36.478  49.894  0.00  0.00     0.154 C 
ATOM    133  O7  ASG d 304      17.588  39.952  50.653  0.00  0.00    -0.274 OA
ATOM    134  O6  ASG d 304      18.906  32.433  50.151  0.00  0.00    -0.398 OA
ATOM    135  O5  ASG d 304      18.292  35.350  50.406  0.00  0.00    -0.349 OA
ATOM    136  C2  ASG d 304      18.429  37.552  49.283  0.00  0.00     0.087 C 
ATOM    137  OSA ASG d 304      22.886  36.548  48.204  0.00  0.00    -0.572 OA
ATOM    138  H   ASG d 304      18.484  34.355  48.568  0.00  0.00     0.090 H 
ATOM    139  H   ASG d 304      20.193  33.813  50.940  0.00  0.00     0.078 H 
ATOM    140  H   ASG d 304      20.599  33.230  49.336  0.00  0.00     0.078 H 
ATOM    141  H   ASG d 304      16.258  40.422  47.728  0.00  0.00     0.040 H 
ATOM    142  H   ASG d 304      16.928  41.722  48.684  0.00  0.00     0.040 H 
ATOM    143  H   ASG d 304      15.476  40.908  49.214  0.00  0.00     0.040 H 
ATOM    144  H   ASG d 304      17.287  38.623  47.800  0.00  0.00     0.163 HD
ATOM    145  H   ASG d 304      20.637  35.291  47.956  0.00  0.00     0.093 H 
ATOM    146  H   ASG d 304      18.583  36.532  47.415  0.00  0.00     0.091 H 
ATOM    147  H   ASG d 304      16.873  36.124  49.121  0.00  0.00     0.132 H 
ATOM    148  H   ASG d 304      18.180  32.695  50.739  0.00  0.00     0.209 HD
ATOM    149  H   ASG d 304      19.081  37.953  50.031  0.00  0.00     0.084 H 
ENDROOT
TORSDOF 38
ENDMDL
MODEL 12
REMARK VINA RESULT:      -7.5      2.751      3.135
REMARK  0 active torsions:
REMARK  status: ('A' for Active; 'I' for Inactive)
REMARK       I    between atoms: C6_2  and  C5_74 
REMARK       I    between atoms: C1_3  and  O4_24 
REMARK       I    between atoms: O6_4  and  C6_26 
REMARK       I    between atoms: C5_5  and  C6_12 
REMARK       I    between atoms: C4_6  and  O4_22 
REMARK       I    between atoms: C6_8  and  C5_90 
REMARK       I    between atoms: C6_8  and  O6_83 
REMARK       I    between atoms: O3_11  and  C3_60 
REMARK       I    between atoms: O3_11  and  C1_29 
REMARK       I    between atoms: C5_13  and  C6_18 
REMARK       I    between atoms: O4_14  and  C4_88 
REMARK       I    between atoms: O4_14  and  S_15 
REMARK       I    between atoms: C6_16  and  C5_28 
REMARK       I    between atoms: S_17  and  O4_22 
REMARK       I    between atoms: C6_18  and  O6_66 
REMARK       I    between atoms: O4_20  and  C4_46 
REMARK       I    between atoms: O4_20  and  C1_61 
REMARK       I    between atoms: O4_21  and  C4_54 
REMARK       I    between atoms: O4_21  and  S_40 
REMARK       I    between atoms: O4_24  and  C4_35 
REMARK       I    between atoms: O3_25  and  C3_48 
REMARK       I    between atoms: C6_26  and  C5_50 
REMARK       I    between atoms: C2_27  and  O2_55 
REMARK       I    between atoms: O3_31  and  C3_37 
REMARK       I    between atoms: C2_32  and  N_72 
REMARK       I    between atoms: C7_33  and  C8_39 
REMARK       I    between atoms: C7_33  and  N_52 
REMARK       I    between atoms: C1_34  and  O4_86 
REMARK       I    between atoms: C3_36  and  O3_87 
REMARK       I    between atoms: C2_47  and  O2_85 
REMARK       I    between atoms: N_52  and  C2_71 
REMARK       I    between atoms: C3_53  and  O3_81 
REMARK       I    between atoms: C1_56  and  O3_81 
REMARK       I    between atoms: C7_57  and  C8_64 
REMARK       I    between atoms: C7_57  and  N_63 
REMARK       I    between atoms: C8_58  and  C7_73 
REMARK       I    between atoms: C1_59  and  O1_68 
REMARK       I    between atoms: N_63  and  C2_67 
REMARK       I    between atoms: C4_69  and  O4_86 
REMARK       I    between atoms: N_72  and  C7_73 
REMARK       I    between atoms: C2_77  and  O2_82 
ROOT
ATOM      1  OSB ASG d 302      15.176  38.581  40.496  0.00  0.00    -0.572 OA
ATOM      2  O6  ASG d 302      14.267  34.544  39.018  0.00  0.00    -0.398 OA
ATOM      3  O4  ASG d 302      16.894  37.028  41.401  0.00  0.00    -0.246 OA
ATOM      4  S   ASG d 302      16.201  38.467  41.515  0.00  0.00     0.252 S 
ATOM      5  C6  ASG d 302      14.886  35.552  39.812  0.00  0.00     0.043 C 
ATOM      6  C2  ASG d 302      18.413  34.759  42.117  0.00  0.00     0.087 C 
ATOM      7  C1  ASG d 302      17.975  33.867  40.964  0.00  0.00     0.154 C 
ATOM      8  O5  ASG d 302      17.016  34.528  40.107  0.00  0.00    -0.349 OA
ATOM      9  C5  ASG d 302      15.823  34.933  40.818  0.00  0.00     0.090 C 
ATOM     10  O7  ASG d 302      21.039  35.623  42.922  0.00  0.00    -0.274 OA
ATOM     11  C3  ASG d 302      17.171  35.142  42.901  0.00  0.00     0.094 C 
ATOM     12  C8  ASG d 302      21.417  33.642  44.225  0.00  0.00    -0.003 C 
ATOM     13  OSA ASG d 302      15.602  38.632  42.827  0.00  0.00    -0.572 OA
ATOM     14  N   ASG d 302      19.370  34.021  42.995  0.00  0.00    -0.349 N 
ATOM     15  C7  ASG d 302      20.619  34.547  43.317  0.00  0.00     0.214 C 
ATOM     16  OSC ASG d 302      17.199  39.491  41.309  0.00  0.00    -0.572 OA
ATOM     17  O3  ASG d 302      17.563  35.999  43.911  0.00  0.00    -0.348 OA
ATOM     18  C4  ASG d 302      16.210  35.891  41.963  0.00  0.00     0.114 C 
ATOM     19  H   ASG d 302      13.669  34.959  38.377  0.00  0.00     0.209 HD
ATOM     20  H   ASG d 302      14.131  36.105  40.329  0.00  0.00     0.078 H 
ATOM     21  H   ASG d 302      15.447  36.200  39.171  0.00  0.00     0.078 H 
ATOM     22  H   ASG d 302      18.906  35.635  41.751  0.00  0.00     0.084 H 
ATOM     23  H   ASG d 302      17.519  32.998  41.388  0.00  0.00     0.132 H 
ATOM     24  H   ASG d 302      15.322  34.106  41.276  0.00  0.00     0.090 H 
ATOM     25  H   ASG d 302      16.687  34.275  43.301  0.00  0.00     0.091 H 
ATOM     26  H   ASG d 302      22.363  34.095  44.439  0.00  0.00     0.040 H 
ATOM     27  H   ASG d 302      21.574  32.700  43.741  0.00  0.00     0.040 H 
ATOM     28  H   ASG d 302      20.881  33.488  45.138  0.00  0.00     0.040 H 
ATOM     29  H   ASG d 302      19.113  33.142  43.354  0.00  0.00     0.163 HD
ATOM     30  H   ASG d 302      15.342  36.218  42.497  0.00  0.00     0.093 H 
ATOM     31  C6  BDP d 303      13.836  35.028  46.617  0.00  0.00     0.206 C 
ATOM     32  O4  BDP d 303      15.570  35.610  48.958  0.00  0.00    -0.348 OA
ATOM     33  O3  BDP d 303      18.043  36.931  48.567  0.00  0.00    -0.390 OA
ATOM     34  C3  BDP d 303      17.474  36.035  47.599  0.00  0.00     0.092 C 
ATOM     35  O6B BDP d 303      13.249  36.128  46.624  0.00  0.00    -0.646 OA
ATOM     36  C4  BDP d 303      15.942  36.050  47.697  0.00  0.00     0.103 C 
ATOM     37  C2  BDP d 303      17.862  36.500  46.209  0.00  0.00     0.110 C 
ATOM     38  O6A BDP d 303      13.361  33.869  46.605  0.00  0.00    -0.646 OA
ATOM     39  C1  BDP d 303      17.243  35.562  45.185  0.00  0.00     0.160 C 
ATOM     40  C5  BDP d 303      15.362  35.087  46.627  0.00  0.00     0.152 C 
ATOM     41  O5  BDP d 303      15.797  35.521  45.309  0.00  0.00    -0.340 OA
ATOM     42  O2  BDP d 303      19.285  36.478  46.054  0.00  0.00    -0.388 OA
ATOM     43  H   BDP d 303      19.010  36.913  48.496  0.00  0.00     0.210 HD
ATOM     44  H   BDP d 303      17.839  35.047  47.787  0.00  0.00     0.091 H 
ATOM     45  H   BDP d 303      15.571  37.041  47.534  0.00  0.00     0.092 H 
ATOM     46  H   BDP d 303      17.509  37.499  46.064  0.00  0.00     0.094 H 
ATOM     47  H   BDP d 303      17.631  34.580  45.359  0.00  0.00     0.133 H 
ATOM     48  H   BDP d 303      15.723  34.110  46.875  0.00  0.00     0.104 H 
ATOM     49  H   BDP d 303      19.611  35.574  46.184  0.00  0.00     0.210 HD
ATOM     50  C1  ASG d 306       6.561  36.478  50.617  0.00  0.00     0.151 C 
ATOM     51  C4  ASG d 306       4.338  38.276  49.971  0.00  0.00     0.089 C 
ATOM     52  C6  ASG d 306       6.149  40.005  49.524  0.00  0.00     0.043 C 
ATOM     53  S   ASG d 306       2.914  39.761  51.523  0.00  0.00     0.252 S 
ATOM     54  O4  ASG d 306       4.150  38.792  51.289  0.00  0.00    -0.249 OA
ATOM     55  OSB ASG d 306       2.879  40.153  52.920  0.00  0.00    -0.572 OA
ATOM     56  OSA ASG d 306       3.069  40.942  50.692  0.00  0.00    -0.572 OA
ATOM     57  C3  ASG d 306       4.048  36.733  50.001  0.00  0.00    -0.014 C 
ATOM     58  C7  ASG d 306       5.061  33.982  52.346  0.00  0.00     0.214 C 
ATOM     59  N   ASG d 306       5.051  34.634  51.111  0.00  0.00    -0.352 N 
ATOM     60  C8  ASG d 306       4.953  32.484  52.213  0.00  0.00    -0.003 C 
ATOM     61  C2  ASG d 306       5.162  36.124  51.018  0.00  0.00     0.062 C 
ATOM     62  O5  ASG d 306       6.725  37.912  50.519  0.00  0.00    -0.349 OA
ATOM     63  O6  ASG d 306       7.533  40.207  49.245  0.00  0.00    -0.398 OA
ATOM     64  O7  ASG d 306       5.155  34.548  53.432  0.00  0.00    -0.274 OA
ATOM     65  OSC ASG d 306       1.687  39.079  51.174  0.00  0.00    -0.572 OA
ATOM     66  C5  ASG d 306       5.817  38.530  49.555  0.00  0.00     0.088 C 
ATOM     67  H   ASG d 306       6.772  36.061  49.655  0.00  0.00     0.132 H 
ATOM     68  H   ASG d 306       3.682  38.752  49.271  0.00  0.00     0.089 H 
ATOM     69  H   ASG d 306       5.916  40.438  50.476  0.00  0.00     0.078 H 
ATOM     70  H   ASG d 306       5.572  40.471  48.753  0.00  0.00     0.078 H 
ATOM     71  H   ASG d 306       4.158  36.309  49.024  0.00  0.00     0.040 H 
ATOM     72  H   ASG d 306       3.049  36.515  50.316  0.00  0.00     0.040 H 
ATOM     73  H   ASG d 306       4.970  34.104  50.285  0.00  0.00     0.163 HD
ATOM     74  H   ASG d 306       4.882  32.223  51.177  0.00  0.00     0.040 H 
ATOM     75  H   ASG d 306       4.080  32.142  52.728  0.00  0.00     0.040 H 
ATOM     76  H   ASG d 306       5.821  32.024  52.638  0.00  0.00     0.040 H 
ATOM     77  H   ASG d 306       4.960  36.566  51.972  0.00  0.00     0.080 H 
ATOM     78  H   ASG d 306       8.068  39.789  49.939  0.00  0.00     0.209 HD
ATOM     79  H   ASG d 306       5.935  38.109  48.578  0.00  0.00     0.090 H 
ATOM     80  C5  BDP d 305       9.506  34.719  51.596  0.00  0.00     0.152 C 
ATOM     81  O6B BDP d 305       9.773  34.438  49.281  0.00  0.00    -0.646 OA
ATOM     82  C6  BDP d 305       9.193  34.000  50.292  0.00  0.00     0.206 C 
ATOM     83  O4  BDP d 305       7.435  35.960  51.568  0.00  0.00    -0.348 OA
ATOM     84  O3  BDP d 305       8.528  37.999  53.219  0.00  0.00    -0.390 OA
ATOM     85  C2  BDP d 305      10.668  36.943  53.064  0.00  0.00     0.110 C 
ATOM     86  C1  BDP d 305      11.382  35.595  52.886  0.00  0.00     0.160 C 
ATOM     87  C4  BDP d 305       8.801  36.090  51.716  0.00  0.00     0.103 C 
ATOM     88  O6A BDP d 305       8.379  33.050  50.401  0.00  0.00    -0.646 OA
ATOM     89  C3  BDP d 305       9.167  36.729  53.069  0.00  0.00     0.092 C 
ATOM     90  O2  BDP d 305      11.111  37.532  54.290  0.00  0.00    -0.388 OA
ATOM     91  O5  BDP d 305      10.950  34.933  51.658  0.00  0.00    -0.340 OA
ATOM     92  H   BDP d 305       9.150  34.108  52.400  0.00  0.00     0.104 H 
ATOM     93  H   BDP d 305       8.771  38.384  54.076  0.00  0.00     0.210 HD
ATOM     94  H   BDP d 305      10.902  37.603  52.255  0.00  0.00     0.094 H 
ATOM     95  H   BDP d 305      11.130  34.978  53.723  0.00  0.00     0.133 H 
ATOM     96  H   BDP d 305       9.138  36.732  50.929  0.00  0.00     0.092 H 
ATOM     97  H   BDP d 305       8.852  36.094  53.870  0.00  0.00     0.091 H 
ATOM     98  H   BDP d 305      10.902  36.937  55.027  0.00  0.00     0.210 HD
ATOM     99  O6B BDP d 301      20.001  30.087  40.938  0.00  0.00    -0.646 OA
ATOM    100  C6  BDP d 301      20.621  31.164  40.798  0.00  0.00     0.206 C 
ATOM    101  O6A BDP d 301      21.373  31.764  41.596  0.00  0.00    -0.646 OA
ATOM    102  O5  BDP d 301      20.662  30.880  38.406  0.00  0.00    -0.340 OA
ATOM    103  C5  BDP d 301      20.437  31.853  39.452  0.00  0.00     0.152 C 
ATOM    104  C3  BDP d 301      18.980  33.134  37.865  0.00  0.00     0.092 C 
ATOM    105  C1  BDP d 301      20.525  31.440  37.064  0.00  0.00     0.156 C 
ATOM    106  O1  BDP d 301      20.833  30.324  36.096  0.00  0.00    -0.368 OA
ATOM    107  C4  BDP d 301      19.068  32.512  39.282  0.00  0.00     0.103 C 
ATOM    108  C2  BDP d 301      19.166  32.033  36.832  0.00  0.00     0.110 C 
ATOM    109  O2  BDP d 301      19.120  32.552  35.505  0.00  0.00    -0.388 OA
ATOM    110  O4  BDP d 301      19.063  33.540  40.205  0.00  0.00    -0.348 OA
ATOM    111  O3  BDP d 301      17.698  33.736  37.676  0.00  0.00    -0.390 OA
ATOM    112  H   BDP d 301      21.148  32.650  39.396  0.00  0.00     0.104 H 
ATOM    113  H   BDP d 301      19.740  33.879  37.757  0.00  0.00     0.091 H 
ATOM    114  H   BDP d 301      21.205  32.255  36.927  0.00  0.00     0.133 H 
ATOM    115  H   BDP d 301      20.208  29.595  36.233  0.00  0.00     0.212 HD
ATOM    116  H   BDP d 301      18.261  31.822  39.412  0.00  0.00     0.092 H 
ATOM    117  H   BDP d 301      18.383  31.310  36.933  0.00  0.00     0.094 H 
ATOM    118  H   BDP d 301      19.822  33.211  35.392  0.00  0.00     0.210 HD
ATOM    119  H   BDP d 301      17.006  33.063  37.775  0.00  0.00     0.210 HD
ATOM    120  OSC ASG d 304      16.317  37.331  55.193  0.00  0.00    -0.572 OA
ATOM    121  O3  ASG d 304      12.780  35.788  52.835  0.00  0.00    -0.348 OA
ATOM    122  C5  ASG d 304      14.587  38.488  50.924  0.00  0.00     0.090 C 
ATOM    123  C6  ASG d 304      15.400  39.715  51.261  0.00  0.00     0.043 C 
ATOM    124  O4  ASG d 304      15.180  37.354  52.989  0.00  0.00    -0.246 OA
ATOM    125  C7  ASG d 304      14.026  33.167  50.213  0.00  0.00     0.214 C 
ATOM    126  C8  ASG d 304      13.057  32.112  49.733  0.00  0.00    -0.003 C 
ATOM    127  S   ASG d 304      15.201  37.919  54.481  0.00  0.00     0.252 S 
ATOM    128  OSB ASG d 304      15.344  39.364  54.461  0.00  0.00    -0.572 OA
ATOM    129  N   ASG d 304      13.420  34.398  50.421  0.00  0.00    -0.349 N 
ATOM    130  C4  ASG d 304      14.063  37.746  52.175  0.00  0.00     0.114 C 
ATOM    131  C3  ASG d 304      13.275  36.503  51.714  0.00  0.00     0.094 C 
ATOM    132  C1  ASG d 304      14.708  36.400  49.702  0.00  0.00     0.154 C 
ATOM    133  O7  ASG d 304      15.213  32.947  50.391  0.00  0.00    -0.274 OA
ATOM    134  O6  ASG d 304      15.489  40.588  50.135  0.00  0.00    -0.398 OA
ATOM    135  O5  ASG d 304      15.423  37.597  50.126  0.00  0.00    -0.349 OA
ATOM    136  C2  ASG d 304      14.184  35.598  50.899  0.00  0.00     0.087 C 
ATOM    137  OSA ASG d 304      13.957  37.577  55.150  0.00  0.00    -0.572 OA
ATOM    138  H   ASG d 304      13.722  38.800  50.378  0.00  0.00     0.090 H 
ATOM    139  H   ASG d 304      16.384  39.415  51.551  0.00  0.00     0.078 H 
ATOM    140  H   ASG d 304      14.919  40.235  52.063  0.00  0.00     0.078 H 
ATOM    141  H   ASG d 304      12.078  32.536  49.651  0.00  0.00     0.040 H 
ATOM    142  H   ASG d 304      13.037  31.302  50.431  0.00  0.00     0.040 H 
ATOM    143  H   ASG d 304      13.369  31.749  48.775  0.00  0.00     0.040 H 
ATOM    144  H   ASG d 304      12.454  34.486  50.250  0.00  0.00     0.163 HD
ATOM    145  H   ASG d 304      13.420  38.381  52.749  0.00  0.00     0.093 H 
ATOM    146  H   ASG d 304      12.448  36.822  51.113  0.00  0.00     0.091 H 
ATOM    147  H   ASG d 304      13.863  36.698  49.117  0.00  0.00     0.132 H 
ATOM    148  H   ASG d 304      15.924  40.126  49.401  0.00  0.00     0.209 HD
ATOM    149  H   ASG d 304      15.001  35.258  51.499  0.00  0.00     0.084 H 
ENDROOT
TORSDOF 38
ENDMDL
MODEL 13
REMARK VINA RESULT:      -7.5      4.500      7.261
REMARK  0 active torsions:
REMARK  status: ('A' for Active; 'I' for Inactive)
REMARK       I    between atoms: C6_2  and  C5_74 
REMARK       I    between atoms: C1_3  and  O4_24 
REMARK       I    between atoms: O6_4  and  C6_26 
REMARK       I    between atoms: C5_5  and  C6_12 
REMARK       I    between atoms: C4_6  and  O4_22 
REMARK       I    between atoms: C6_8  and  C5_90 
REMARK       I    between atoms: C6_8  and  O6_83 
REMARK       I    between atoms: O3_11  and  C3_60 
REMARK       I    between atoms: O3_11  and  C1_29 
REMARK       I    between atoms: C5_13  and  C6_18 
REMARK       I    between atoms: O4_14  and  C4_88 
REMARK       I    between atoms: O4_14  and  S_15 
REMARK       I    between atoms: C6_16  and  C5_28 
REMARK       I    between atoms: S_17  and  O4_22 
REMARK       I    between atoms: C6_18  and  O6_66 
REMARK       I    between atoms: O4_20  and  C4_46 
REMARK       I    between atoms: O4_20  and  C1_61 
REMARK       I    between atoms: O4_21  and  C4_54 
REMARK       I    between atoms: O4_21  and  S_40 
REMARK       I    between atoms: O4_24  and  C4_35 
REMARK       I    between atoms: O3_25  and  C3_48 
REMARK       I    between atoms: C6_26  and  C5_50 
REMARK       I    between atoms: C2_27  and  O2_55 
REMARK       I    between atoms: O3_31  and  C3_37 
REMARK       I    between atoms: C2_32  and  N_72 
REMARK       I    between atoms: C7_33  and  C8_39 
REMARK       I    between atoms: C7_33  and  N_52 
REMARK       I    between atoms: C1_34  and  O4_86 
REMARK       I    between atoms: C3_36  and  O3_87 
REMARK       I    between atoms: C2_47  and  O2_85 
REMARK       I    between atoms: N_52  and  C2_71 
REMARK       I    between atoms: C3_53  and  O3_81 
REMARK       I    between atoms: C1_56  and  O3_81 
REMARK       I    between atoms: C7_57  and  C8_64 
REMARK       I    between atoms: C7_57  and  N_63 
REMARK       I    between atoms: C8_58  and  C7_73 
REMARK       I    between atoms: C1_59  and  O1_68 
REMARK       I    between atoms: N_63  and  C2_67 
REMARK       I    between atoms: C4_69  and  O4_86 
REMARK       I    between atoms: N_72  and  C7_73 
REMARK       I    between atoms: C2_77  and  O2_82 
ROOT
ATOM      1  OSB ASG d 302      15.676  40.401  49.603  0.00  0.00    -0.572 OA
ATOM      2  O6  ASG d 302      17.318  37.239  47.030  0.00  0.00    -0.398 OA
ATOM      3  O4  ASG d 302      16.534  38.586  51.071  0.00  0.00    -0.246 OA
ATOM      4  S   ASG d 302      15.610  39.889  50.959  0.00  0.00     0.252 S 
ATOM      5  C6  ASG d 302      16.845  37.859  48.222  0.00  0.00     0.043 C 
ATOM      6  C2  ASG d 302      17.606  36.183  52.095  0.00  0.00     0.087 C 
ATOM      7  C1  ASG d 302      18.420  35.801  50.867  0.00  0.00     0.154 C 
ATOM      8  O5  ASG d 302      18.255  36.756  49.793  0.00  0.00    -0.349 OA
ATOM      9  C5  ASG d 302      16.876  36.888  49.374  0.00  0.00     0.090 C 
ATOM     10  O7  ASG d 302      18.425  36.625  54.820  0.00  0.00    -0.274 OA
ATOM     11  C3  ASG d 302      16.150  36.268  51.674  0.00  0.00     0.094 C 
ATOM     12  C8  ASG d 302      18.274  34.291  55.365  0.00  0.00    -0.003 C 
ATOM     13  OSA ASG d 302      14.236  39.560  51.288  0.00  0.00    -0.572 OA
ATOM     14  N   ASG d 302      17.777  35.149  53.159  0.00  0.00    -0.349 N 
ATOM     15  C7  ASG d 302      18.177  35.489  54.448  0.00  0.00     0.214 C 
ATOM     16  OSC ASG d 302      16.098  40.895  51.875  0.00  0.00    -0.572 OA
ATOM     17  O3  ASG d 302      15.421  36.672  52.776  0.00  0.00    -0.348 OA
ATOM     18  C4  ASG d 302      16.017  37.335  50.575  0.00  0.00     0.114 C 
ATOM     19  H   ASG d 302      17.291  37.877  46.301  0.00  0.00     0.209 HD
ATOM     20  H   ASG d 302      15.840  38.192  48.071  0.00  0.00     0.078 H 
ATOM     21  H   ASG d 302      17.479  38.690  48.454  0.00  0.00     0.078 H 
ATOM     22  H   ASG d 302      17.934  37.122  52.489  0.00  0.00     0.084 H 
ATOM     23  H   ASG d 302      18.071  34.846  50.536  0.00  0.00     0.132 H 
ATOM     24  H   ASG d 302      16.463  35.960  49.040  0.00  0.00     0.090 H 
ATOM     25  H   ASG d 302      15.800  35.324  51.309  0.00  0.00     0.091 H 
ATOM     26  H   ASG d 302      18.584  34.611  56.337  0.00  0.00     0.040 H 
ATOM     27  H   ASG d 302      18.989  33.598  54.972  0.00  0.00     0.040 H 
ATOM     28  H   ASG d 302      17.318  33.816  55.433  0.00  0.00     0.040 H 
ATOM     29  H   ASG d 302      17.602  34.205  52.944  0.00  0.00     0.163 HD
ATOM     30  H   ASG d 302      14.993  37.454  50.288  0.00  0.00     0.093 H 
ATOM     31  C6  BDP d 303      11.392  34.829  51.184  0.00  0.00     0.206 C 
ATOM     32  O4  BDP d 303      10.615  34.449  54.026  0.00  0.00    -0.348 OA
ATOM     33  O3  BDP d 303      12.077  35.769  56.060  0.00  0.00    -0.390 OA
ATOM     34  C3  BDP d 303      12.677  35.316  54.835  0.00  0.00     0.092 C 
ATOM     35  O6B BDP d 303      10.708  35.857  51.008  0.00  0.00    -0.646 OA
ATOM     36  C4  BDP d 303      11.640  35.325  53.702  0.00  0.00     0.103 C 
ATOM     37  C2  BDP d 303      13.799  36.263  54.455  0.00  0.00     0.110 C 
ATOM     38  O6A BDP d 303      11.430  33.770  50.516  0.00  0.00    -0.646 OA
ATOM     39  C1  BDP d 303      14.418  35.794  53.149  0.00  0.00     0.160 C 
ATOM     40  C5  BDP d 303      12.325  34.848  52.393  0.00  0.00     0.152 C 
ATOM     41  O5  BDP d 303      13.433  35.739  52.083  0.00  0.00    -0.340 OA
ATOM     42  O2  BDP d 303      14.809  36.272  55.469  0.00  0.00    -0.388 OA
ATOM     43  H   BDP d 303      12.741  35.759  56.767  0.00  0.00     0.210 HD
ATOM     44  H   BDP d 303      13.047  34.323  54.978  0.00  0.00     0.091 H 
ATOM     45  H   BDP d 303      11.247  36.311  53.569  0.00  0.00     0.092 H 
ATOM     46  H   BDP d 303      13.401  37.250  54.348  0.00  0.00     0.094 H 
ATOM     47  H   BDP d 303      14.811  34.811  53.304  0.00  0.00     0.133 H 
ATOM     48  H   BDP d 303      12.647  33.843  52.571  0.00  0.00     0.104 H 
ATOM     49  H   BDP d 303      15.174  35.379  55.569  0.00  0.00     0.210 HD
ATOM     50  C1  ASG d 306       3.517  34.813  48.183  0.00  0.00     0.151 C 
ATOM     51  C4  ASG d 306       2.086  36.768  46.533  0.00  0.00     0.089 C 
ATOM     52  C6  ASG d 306       3.058  38.500  48.121  0.00  0.00     0.043 C 
ATOM     53  S   ASG d 306      -0.353  37.587  46.689  0.00  0.00     0.252 S 
ATOM     54  O4  ASG d 306       0.864  36.752  47.274  0.00  0.00    -0.249 OA
ATOM     55  OSB ASG d 306      -1.500  37.424  47.564  0.00  0.00    -0.572 OA
ATOM     56  OSA ASG d 306       0.014  38.990  46.629  0.00  0.00    -0.572 OA
ATOM     57  C3  ASG d 306       2.317  35.334  45.936  0.00  0.00    -0.014 C 
ATOM     58  C7  ASG d 306       2.024  31.881  47.381  0.00  0.00     0.214 C 
ATOM     59  N   ASG d 306       2.731  32.951  46.827  0.00  0.00    -0.352 N 
ATOM     60  C8  ASG d 306       2.476  30.547  46.843  0.00  0.00    -0.003 C 
ATOM     61  C2  ASG d 306       2.448  34.363  47.235  0.00  0.00     0.062 C 
ATOM     62  O5  ASG d 306       3.287  36.175  48.614  0.00  0.00    -0.349 OA
ATOM     63  O6  ASG d 306       4.072  38.763  49.090  0.00  0.00    -0.398 OA
ATOM     64  O7  ASG d 306       1.135  31.993  48.220  0.00  0.00    -0.274 OA
ATOM     65  OSC ASG d 306      -0.677  37.113  45.362  0.00  0.00    -0.572 OA
ATOM     66  C5  ASG d 306       3.243  37.129  47.509  0.00  0.00     0.088 C 
ATOM     67  H   ASG d 306       4.466  34.786  47.689  0.00  0.00     0.132 H 
ATOM     68  H   ASG d 306       2.048  37.486  45.739  0.00  0.00     0.089 H 
ATOM     69  H   ASG d 306       2.099  38.546  48.595  0.00  0.00     0.078 H 
ATOM     70  H   ASG d 306       3.125  39.235  47.346  0.00  0.00     0.078 H 
ATOM     71  H   ASG d 306       3.214  35.307  45.354  0.00  0.00     0.040 H 
ATOM     72  H   ASG d 306       1.523  35.034  45.284  0.00  0.00     0.040 H 
ATOM     73  H   ASG d 306       3.429  32.773  46.156  0.00  0.00     0.163 HD
ATOM     74  H   ASG d 306       3.257  30.697  46.127  0.00  0.00     0.040 H 
ATOM     75  H   ASG d 306       1.651  30.053  46.373  0.00  0.00     0.040 H 
ATOM     76  H   ASG d 306       2.841  29.943  47.648  0.00  0.00     0.040 H 
ATOM     77  H   ASG d 306       1.504  34.417  47.737  0.00  0.00     0.080 H 
ATOM     78  H   ASG d 306       4.021  38.103  49.799  0.00  0.00     0.209 HD
ATOM     79  H   ASG d 306       4.146  37.106  46.933  0.00  0.00     0.090 H 
ATOM     80  C5  BDP d 305       5.148  32.754  50.597  0.00  0.00     0.152 C 
ATOM     81  O6B BDP d 305       7.077  33.362  49.403  0.00  0.00    -0.646 OA
ATOM     82  C6  BDP d 305       6.102  32.587  49.422  0.00  0.00     0.206 C 
ATOM     83  O4  BDP d 305       3.520  33.956  49.280  0.00  0.00    -0.348 OA
ATOM     84  O3  BDP d 305       2.432  35.199  51.593  0.00  0.00    -0.390 OA
ATOM     85  C2  BDP d 305       4.184  34.236  52.904  0.00  0.00     0.110 C 
ATOM     86  C1  BDP d 305       5.141  33.040  53.019  0.00  0.00     0.160 C 
ATOM     87  C4  BDP d 305       4.233  33.993  50.461  0.00  0.00     0.103 C 
ATOM     88  O6A BDP d 305       5.780  31.683  48.613  0.00  0.00    -0.646 OA
ATOM     89  C3  BDP d 305       3.300  34.067  51.685  0.00  0.00     0.092 C 
ATOM     90  O2  BDP d 305       3.406  34.309  54.102  0.00  0.00    -0.388 OA
ATOM     91  O5  BDP d 305       5.948  32.900  51.810  0.00  0.00    -0.340 OA
ATOM     92  H   BDP d 305       4.514  31.893  50.628  0.00  0.00     0.104 H 
ATOM     93  H   BDP d 305       1.854  35.227  52.372  0.00  0.00     0.210 HD
ATOM     94  H   BDP d 305       4.732  35.147  52.788  0.00  0.00     0.094 H 
ATOM     95  H   BDP d 305       4.550  32.158  53.148  0.00  0.00     0.133 H 
ATOM     96  H   BDP d 305       4.835  34.877  50.432  0.00  0.00     0.092 H 
ATOM     97  H   BDP d 305       2.699  33.184  51.740  0.00  0.00     0.091 H 
ATOM     98  H   BDP d 305       2.907  33.485  54.213  0.00  0.00     0.210 HD
ATOM     99  O6B BDP d 301      20.775  32.269  51.478  0.00  0.00    -0.646 OA
ATOM    100  C6  BDP d 301      20.961  33.307  52.151  0.00  0.00     0.206 C 
ATOM    101  O6A BDP d 301      20.684  33.546  53.347  0.00  0.00    -0.646 OA
ATOM    102  O5  BDP d 301      22.804  33.945  50.737  0.00  0.00    -0.340 OA
ATOM    103  C5  BDP d 301      21.629  34.456  51.408  0.00  0.00     0.152 C 
ATOM    104  C3  BDP d 301      21.507  36.271  49.683  0.00  0.00     0.092 C 
ATOM    105  C1  BDP d 301      23.535  34.973  50.000  0.00  0.00     0.156 C 
ATOM    106  O1  BDP d 301      24.746  34.299  49.403  0.00  0.00    -0.368 OA
ATOM    107  C4  BDP d 301      20.709  35.159  50.410  0.00  0.00     0.103 C 
ATOM    108  C2  BDP d 301      22.684  35.637  48.957  0.00  0.00     0.110 C 
ATOM    109  O2  BDP d 301      23.472  36.620  48.290  0.00  0.00    -0.388 OA
ATOM    110  O4  BDP d 301      19.746  35.762  51.195  0.00  0.00    -0.348 OA
ATOM    111  O3  BDP d 301      20.671  36.926  48.728  0.00  0.00    -0.390 OA
ATOM    112  H   BDP d 301      21.892  35.200  52.129  0.00  0.00     0.104 H 
ATOM    113  H   BDP d 301      21.852  36.985  50.401  0.00  0.00     0.091 H 
ATOM    114  H   BDP d 301      23.831  35.765  50.656  0.00  0.00     0.133 H 
ATOM    115  H   BDP d 301      24.460  33.584  48.812  0.00  0.00     0.212 HD
ATOM    116  H   BDP d 301      20.303  34.488  49.683  0.00  0.00     0.092 H 
ATOM    117  H   BDP d 301      22.324  34.946  48.224  0.00  0.00     0.094 H 
ATOM    118  H   BDP d 301      23.810  37.258  48.937  0.00  0.00     0.210 HD
ATOM    119  H   BDP d 301      20.355  36.280  48.077  0.00  0.00     0.210 HD
ATOM    120  OSC ASG d 304       6.070  33.675  58.625  0.00  0.00    -0.572 OA
ATOM    121  O3  ASG d 304       6.000  33.209  54.126  0.00  0.00    -0.348 OA
ATOM    122  C5  ASG d 304       7.760  36.393  55.115  0.00  0.00     0.090 C 
ATOM    123  C6  ASG d 304       7.679  37.384  56.250  0.00  0.00     0.043 C 
ATOM    124  O4  ASG d 304       6.952  34.552  56.478  0.00  0.00    -0.246 OA
ATOM    125  C7  ASG d 304       9.425  31.746  52.931  0.00  0.00     0.214 C 
ATOM    126  C8  ASG d 304       9.463  30.970  51.634  0.00  0.00    -0.003 C 
ATOM    127  S   ASG d 304       5.722  34.512  57.494  0.00  0.00     0.252 S 
ATOM    128  OSB ASG d 304       5.419  35.854  57.957  0.00  0.00    -0.572 OA
ATOM    129  N   ASG d 304       8.546  32.819  52.888  0.00  0.00    -0.349 N 
ATOM    130  C4  ASG d 304       6.732  35.245  55.239  0.00  0.00     0.114 C 
ATOM    131  C3  ASG d 304       6.923  34.284  54.047  0.00  0.00     0.094 C 
ATOM    132  C1  ASG d 304       9.311  34.917  53.981  0.00  0.00     0.154 C 
ATOM    133  O7  ASG d 304      10.101  31.451  53.902  0.00  0.00    -0.274 OA
ATOM    134  O6  ASG d 304       8.307  38.616  55.892  0.00  0.00    -0.398 OA
ATOM    135  O5  ASG d 304       9.115  35.852  55.084  0.00  0.00    -0.349 OA
ATOM    136  C2  ASG d 304       8.340  33.735  54.059  0.00  0.00     0.087 C 
ATOM    137  OSA ASG d 304       4.553  33.968  56.823  0.00  0.00    -0.572 OA
ATOM    138  H   ASG d 304       7.526  36.906  54.206  0.00  0.00     0.090 H 
ATOM    139  H   ASG d 304       8.170  36.977  57.108  0.00  0.00     0.078 H 
ATOM    140  H   ASG d 304       6.649  37.574  56.468  0.00  0.00     0.078 H 
ATOM    141  H   ASG d 304       8.789  31.414  50.932  0.00  0.00     0.040 H 
ATOM    142  H   ASG d 304       9.172  29.957  51.817  0.00  0.00     0.040 H 
ATOM    143  H   ASG d 304      10.456  30.989  51.236  0.00  0.00     0.040 H 
ATOM    144  H   ASG d 304       8.041  32.985  52.060  0.00  0.00     0.163 HD
ATOM    145  H   ASG d 304       5.733  35.629  55.228  0.00  0.00     0.093 H 
ATOM    146  H   ASG d 304       6.751  34.823  53.139  0.00  0.00     0.091 H 
ATOM    147  H   ASG d 304       9.123  35.432  53.062  0.00  0.00     0.132 H 
ATOM    148  H   ASG d 304       9.243  38.456  55.692  0.00  0.00     0.209 HD
ATOM    149  H   ASG d 304       8.512  33.176  54.956  0.00  0.00     0.084 H 
ENDROOT
TORSDOF 38
ENDMDL
MODEL 14
REMARK VINA RESULT:      -7.3      5.609     10.445
REMARK  0 active torsions:
REMARK  status: ('A' for Active; 'I' for Inactive)
REMARK       I    between atoms: C6_2  and  C5_74 
REMARK       I    between atoms: C1_3  and  O4_24 
REMARK       I    between atoms: O6_4  and  C6_26 
REMARK       I    between atoms: C5_5  and  C6_12 
REMARK       I    between atoms: C4_6  and  O4_22 
REMARK       I    between atoms: C6_8  and  C5_90 
REMARK       I    between atoms: C6_8  and  O6_83 
REMARK       I    between atoms: O3_11  and  C3_60 
REMARK       I    between atoms: O3_11  and  C1_29 
REMARK       I    between atoms: C5_13  and  C6_18 
REMARK       I    between atoms: O4_14  and  C4_88 
REMARK       I    between atoms: O4_14  and  S_15 
REMARK       I    between atoms: C6_16  and  C5_28 
REMARK       I    between atoms: S_17  and  O4_22 
REMARK       I    between atoms: C6_18  and  O6_66 
REMARK       I    between atoms: O4_20  and  C4_46 
REMARK       I    between atoms: O4_20  and  C1_61 
REMARK       I    between atoms: O4_21  and  C4_54 
REMARK       I    between atoms: O4_21  and  S_40 
REMARK       I    between atoms: O4_24  and  C4_35 
REMARK       I    between atoms: O3_25  and  C3_48 
REMARK       I    between atoms: C6_26  and  C5_50 
REMARK       I    between atoms: C2_27  and  O2_55 
REMARK       I    between atoms: O3_31  and  C3_37 
REMARK       I    between atoms: C2_32  and  N_72 
REMARK       I    between atoms: C7_33  and  C8_39 
REMARK       I    between atoms: C7_33  and  N_52 
REMARK       I    between atoms: C1_34  and  O4_86 
REMARK       I    between atoms: C3_36  and  O3_87 
REMARK       I    between atoms: C2_47  and  O2_85 
REMARK       I    between atoms: N_52  and  C2_71 
REMARK       I    between atoms: C3_53  and  O3_81 
REMARK       I    between atoms: C1_56  and  O3_81 
REMARK       I    between atoms: C7_57  and  C8_64 
REMARK       I    between atoms: C7_57  and  N_63 
REMARK       I    between atoms: C8_58  and  C7_73 
REMARK       I    between atoms: C1_59  and  O1_68 
REMARK       I    between atoms: N_63  and  C2_67 
REMARK       I    between atoms: C4_69  and  O4_86 
REMARK       I    between atoms: N_72  and  C7_73 
REMARK       I    between atoms: C2_77  and  O2_82 
ROOT
ATOM      1  OSB ASG d 302      16.418  36.738  48.425  0.00  0.00    -0.572 OA
ATOM      2  O6  ASG d 302      17.110  32.445  49.064  0.00  0.00    -0.398 OA
ATOM      3  O4  ASG d 302      15.800  36.202  50.773  0.00  0.00    -0.246 OA
ATOM      4  S   ASG d 302      15.689  37.251  49.568  0.00  0.00     0.252 S 
ATOM      5  C6  ASG d 302      16.630  33.760  49.329  0.00  0.00     0.043 C 
ATOM      6  C2  ASG d 302      15.224  34.907  53.215  0.00  0.00     0.087 C 
ATOM      7  C1  ASG d 302      16.108  33.688  52.994  0.00  0.00     0.154 C 
ATOM      8  O5  ASG d 302      16.766  33.726  51.707  0.00  0.00    -0.349 OA
ATOM      9  C5  ASG d 302      15.829  33.784  50.606  0.00  0.00     0.090 C 
ATOM     10  O7  ASG d 302      15.229  36.867  55.323  0.00  0.00    -0.274 OA
ATOM     11  C3  ASG d 302      14.202  34.942  52.093  0.00  0.00     0.094 C 
ATOM     12  C8  ASG d 302      13.834  35.518  56.738  0.00  0.00    -0.003 C 
ATOM     13  OSA ASG d 302      14.298  37.454  49.207  0.00  0.00    -0.572 OA
ATOM     14  N   ASG d 302      14.537  34.804  54.537  0.00  0.00    -0.349 N 
ATOM     15  C7  ASG d 302      14.611  35.826  55.479  0.00  0.00     0.214 C 
ATOM     16  OSC ASG d 302      16.267  38.509  49.981  0.00  0.00    -0.572 OA
ATOM     17  O3  ASG d 302      13.438  36.082  52.261  0.00  0.00    -0.348 OA
ATOM     18  C4  ASG d 302      14.947  35.041  50.752  0.00  0.00     0.114 C 
ATOM     19  H   ASG d 302      17.622  32.448  48.241  0.00  0.00     0.209 HD
ATOM     20  H   ASG d 302      16.008  34.078  48.519  0.00  0.00     0.078 H 
ATOM     21  H   ASG d 302      17.466  34.418  49.435  0.00  0.00     0.078 H 
ATOM     22  H   ASG d 302      15.808  35.803  53.213  0.00  0.00     0.084 H 
ATOM     23  H   ASG d 302      15.479  32.824  53.037  0.00  0.00     0.132 H 
ATOM     24  H   ASG d 302      15.160  32.949  50.597  0.00  0.00     0.090 H 
ATOM     25  H   ASG d 302      13.588  34.065  52.105  0.00  0.00     0.091 H 
ATOM     26  H   ASG d 302      13.927  36.335  57.422  0.00  0.00     0.040 H 
ATOM     27  H   ASG d 302      14.223  34.629  57.189  0.00  0.00     0.040 H 
ATOM     28  H   ASG d 302      12.803  35.373  56.494  0.00  0.00     0.040 H 
ATOM     29  H   ASG d 302      14.019  33.994  54.747  0.00  0.00     0.163 HD
ATOM     30  H   ASG d 302      14.253  35.116  49.941  0.00  0.00     0.093 H 
ATOM     31  C6  BDP d 303       9.771  34.362  49.862  0.00  0.00     0.206 C 
ATOM     32  O4  BDP d 303       8.040  36.060  51.579  0.00  0.00    -0.348 OA
ATOM     33  O3  BDP d 303       9.209  38.113  53.140  0.00  0.00    -0.390 OA
ATOM     34  C3  BDP d 303       9.883  36.879  52.840  0.00  0.00     0.092 C 
ATOM     35  O6B BDP d 303       9.748  35.125  48.875  0.00  0.00    -0.646 OA
ATOM     36  C4  BDP d 303       9.399  36.325  51.493  0.00  0.00     0.103 C 
ATOM     37  C2  BDP d 303      11.372  37.144  52.733  0.00  0.00     0.110 C 
ATOM     38  O6A BDP d 303       9.519  33.137  49.931  0.00  0.00    -0.646 OA
ATOM     39  C1  BDP d 303      12.081  35.842  52.395  0.00  0.00     0.160 C 
ATOM     40  C5  BDP d 303      10.159  35.005  51.192  0.00  0.00     0.152 C 
ATOM     41  O5  BDP d 303      11.587  35.276  51.152  0.00  0.00    -0.340 OA
ATOM     42  O2  BDP d 303      11.881  37.639  53.975  0.00  0.00    -0.388 OA
ATOM     43  H   BDP d 303       9.523  38.453  53.992  0.00  0.00     0.210 HD
ATOM     44  H   BDP d 303       9.675  36.174  53.617  0.00  0.00     0.091 H 
ATOM     45  H   BDP d 303       9.582  37.035  50.713  0.00  0.00     0.092 H 
ATOM     46  H   BDP d 303      11.543  37.874  51.969  0.00  0.00     0.094 H 
ATOM     47  H   BDP d 303      11.893  35.149  53.188  0.00  0.00     0.133 H 
ATOM     48  H   BDP d 303       9.894  34.322  51.972  0.00  0.00     0.104 H 
ATOM     49  H   BDP d 303      11.730  36.981  54.672  0.00  0.00     0.210 HD
ATOM     50  C1  ASG d 306       4.252  33.730  43.524  0.00  0.00     0.151 C 
ATOM     51  C4  ASG d 306       4.523  34.348  40.671  0.00  0.00     0.089 C 
ATOM     52  C6  ASG d 306       5.625  36.499  41.462  0.00  0.00     0.043 C 
ATOM     53  S   ASG d 306       2.852  35.468  39.061  0.00  0.00     0.252 S 
ATOM     54  O4  ASG d 306       3.273  35.025  40.526  0.00  0.00    -0.249 OA
ATOM     55  OSB ASG d 306       1.551  36.110  39.119  0.00  0.00    -0.572 OA
ATOM     56  OSA ASG d 306       3.832  36.407  38.545  0.00  0.00    -0.572 OA
ATOM     57  C3  ASG d 306       4.231  32.858  41.075  0.00  0.00    -0.014 C 
ATOM     58  C7  ASG d 306       1.905  31.290  43.569  0.00  0.00     0.214 C 
ATOM     59  N   ASG d 306       3.167  31.603  43.058  0.00  0.00    -0.352 N 
ATOM     60  C8  ASG d 306       1.822  29.875  44.085  0.00  0.00    -0.003 C 
ATOM     61  C2  ASG d 306       3.466  32.962  42.507  0.00  0.00     0.062 C 
ATOM     62  O5  ASG d 306       4.563  35.059  43.042  0.00  0.00    -0.349 OA
ATOM     63  O6  ASG d 306       6.272  37.153  42.553  0.00  0.00    -0.398 OA
ATOM     64  O7  ASG d 306       0.957  32.069  43.611  0.00  0.00    -0.274 OA
ATOM     65  OSC ASG d 306       2.789  34.309  38.199  0.00  0.00    -0.572 OA
ATOM     66  C5  ASG d 306       5.331  35.054  41.799  0.00  0.00     0.088 C 
ATOM     67  H   ASG d 306       5.178  33.229  43.713  0.00  0.00     0.132 H 
ATOM     68  H   ASG d 306       5.084  34.370  39.760  0.00  0.00     0.089 H 
ATOM     69  H   ASG d 306       4.706  37.004  41.245  0.00  0.00     0.078 H 
ATOM     70  H   ASG d 306       6.275  36.528  40.612  0.00  0.00     0.078 H 
ATOM     71  H   ASG d 306       5.144  32.309  41.174  0.00  0.00     0.040 H 
ATOM     72  H   ASG d 306       3.647  32.347  40.339  0.00  0.00     0.040 H 
ATOM     73  H   ASG d 306       3.873  30.916  43.061  0.00  0.00     0.163 HD
ATOM     74  H   ASG d 306       2.765  29.389  43.945  0.00  0.00     0.040 H 
ATOM     75  H   ASG d 306       1.063  29.344  43.550  0.00  0.00     0.040 H 
ATOM     76  H   ASG d 306       1.580  29.889  45.128  0.00  0.00     0.040 H 
ATOM     77  H   ASG d 306       2.554  33.488  42.315  0.00  0.00     0.080 H 
ATOM     78  H   ASG d 306       5.692  37.134  43.331  0.00  0.00     0.209 HD
ATOM     79  H   ASG d 306       6.247  34.511  41.904  0.00  0.00     0.090 H 
ATOM     80  C5  BDP d 305       3.851  33.499  47.061  0.00  0.00     0.152 C 
ATOM     81  O6B BDP d 305       6.106  32.847  46.995  0.00  0.00    -0.646 OA
ATOM     82  C6  BDP d 305       4.934  32.450  46.851  0.00  0.00     0.206 C 
ATOM     83  O4  BDP d 305       3.499  33.809  44.693  0.00  0.00    -0.348 OA
ATOM     84  O3  BDP d 305       2.445  36.417  45.098  0.00  0.00    -0.390 OA
ATOM     85  C2  BDP d 305       3.012  36.260  47.415  0.00  0.00     0.110 C 
ATOM     86  C1  BDP d 305       3.201  35.287  48.588  0.00  0.00     0.160 C 
ATOM     87  C4  BDP d 305       3.724  34.484  45.876  0.00  0.00     0.103 C 
ATOM     88  O6A BDP d 305       4.505  31.309  46.553  0.00  0.00    -0.646 OA
ATOM     89  C3  BDP d 305       2.598  35.491  46.176  0.00  0.00     0.092 C 
ATOM     90  O2  BDP d 305       2.022  37.224  47.781  0.00  0.00    -0.388 OA
ATOM     91  O5  BDP d 305       4.187  34.260  48.262  0.00  0.00    -0.340 OA
ATOM     92  H   BDP d 305       2.915  32.989  47.152  0.00  0.00     0.104 H 
ATOM     93  H   BDP d 305       1.733  37.042  45.306  0.00  0.00     0.210 HD
ATOM     94  H   BDP d 305       3.928  36.767  47.194  0.00  0.00     0.094 H 
ATOM     95  H   BDP d 305       2.259  34.818  48.779  0.00  0.00     0.133 H 
ATOM     96  H   BDP d 305       4.643  35.018  45.758  0.00  0.00     0.092 H 
ATOM     97  H   BDP d 305       1.671  34.974  46.312  0.00  0.00     0.091 H 
ATOM     98  H   BDP d 305       1.189  36.771  47.983  0.00  0.00     0.210 HD
ATOM     99  O6B BDP d 301      16.190  31.071  56.392  0.00  0.00    -0.646 OA
ATOM    100  C6  BDP d 301      16.614  32.246  56.458  0.00  0.00     0.206 C 
ATOM    101  O6A BDP d 301      16.114  33.247  57.016  0.00  0.00    -0.646 OA
ATOM    102  O5  BDP d 301      18.884  31.488  56.179  0.00  0.00    -0.340 OA
ATOM    103  C5  BDP d 301      17.942  32.500  55.757  0.00  0.00     0.152 C 
ATOM    104  C3  BDP d 301      19.248  32.744  53.632  0.00  0.00     0.092 C 
ATOM    105  C1  BDP d 301      20.204  31.646  55.575  0.00  0.00     0.156 C 
ATOM    106  O1  BDP d 301      21.075  30.553  56.145  0.00  0.00    -0.368 OA
ATOM    107  C4  BDP d 301      17.836  32.528  54.232  0.00  0.00     0.103 C 
ATOM    108  C2  BDP d 301      20.152  31.604  54.076  0.00  0.00     0.110 C 
ATOM    109  O2  BDP d 301      21.476  31.765  53.572  0.00  0.00    -0.388 OA
ATOM    110  O4  BDP d 301      17.075  33.648  53.960  0.00  0.00    -0.348 OA
ATOM    111  O3  BDP d 301      19.175  32.750  52.205  0.00  0.00    -0.390 OA
ATOM    112  H   BDP d 301      18.276  33.477  56.039  0.00  0.00     0.104 H 
ATOM    113  H   BDP d 301      19.637  33.682  53.970  0.00  0.00     0.091 H 
ATOM    114  H   BDP d 301      20.609  32.609  55.807  0.00  0.00     0.133 H 
ATOM    115  H   BDP d 301      20.694  29.689  55.926  0.00  0.00     0.212 HD
ATOM    116  H   BDP d 301      17.421  31.627  53.833  0.00  0.00     0.092 H 
ATOM    117  H   BDP d 301      19.766  30.676  53.707  0.00  0.00     0.094 H 
ATOM    118  H   BDP d 301      21.845  32.602  53.895  0.00  0.00     0.210 HD
ATOM    119  H   BDP d 301      18.821  31.901  51.895  0.00  0.00     0.210 HD
ATOM    120  OSC ASG d 304       2.462  39.245  52.648  0.00  0.00    -0.572 OA
ATOM    121  O3  ASG d 304       3.631  35.987  49.736  0.00  0.00    -0.348 OA
ATOM    122  C5  ASG d 304       6.256  38.691  49.844  0.00  0.00     0.090 C 
ATOM    123  C6  ASG d 304       6.290  40.177  50.105  0.00  0.00     0.043 C 
ATOM    124  O4  ASG d 304       4.289  38.349  51.228  0.00  0.00    -0.246 OA
ATOM    125  C7  ASG d 304       6.144  33.547  51.476  0.00  0.00     0.214 C 
ATOM    126  C8  ASG d 304       6.227  32.122  50.977  0.00  0.00    -0.003 C 
ATOM    127  S   ASG d 304       2.932  39.188  51.279  0.00  0.00     0.252 S 
ATOM    128  OSB ASG d 304       3.165  40.535  50.788  0.00  0.00    -0.572 OA
ATOM    129  N   ASG d 304       5.939  34.462  50.454  0.00  0.00    -0.349 N 
ATOM    130  C4  ASG d 304       4.831  38.094  49.922  0.00  0.00     0.114 C 
ATOM    131  C3  ASG d 304       4.920  36.575  49.667  0.00  0.00     0.094 C 
ATOM    132  C1  ASG d 304       7.203  36.598  50.615  0.00  0.00     0.154 C 
ATOM    133  O7  ASG d 304       6.250  33.845  52.655  0.00  0.00    -0.274 OA
ATOM    134  O6  ASG d 304       7.500  40.750  49.608  0.00  0.00    -0.398 OA
ATOM    135  O5  ASG d 304       7.126  38.040  50.818  0.00  0.00    -0.349 OA
ATOM    136  C2  ASG d 304       5.824  35.937  50.709  0.00  0.00     0.087 C 
ATOM    137  OSA ASG d 304       1.931  38.547  50.443  0.00  0.00    -0.572 OA
ATOM    138  H   ASG d 304       6.596  38.519  48.845  0.00  0.00     0.090 H 
ATOM    139  H   ASG d 304       6.227  40.350  51.159  0.00  0.00     0.078 H 
ATOM    140  H   ASG d 304       5.462  40.632  49.604  0.00  0.00     0.078 H 
ATOM    141  H   ASG d 304       6.107  32.109  49.914  0.00  0.00     0.040 H 
ATOM    142  H   ASG d 304       5.454  31.540  51.431  0.00  0.00     0.040 H 
ATOM    143  H   ASG d 304       7.181  31.710  51.234  0.00  0.00     0.040 H 
ATOM    144  H   ASG d 304       5.868  34.132  49.529  0.00  0.00     0.163 HD
ATOM    145  H   ASG d 304       4.194  38.541  49.188  0.00  0.00     0.093 H 
ATOM    146  H   ASG d 304       5.323  36.413  48.689  0.00  0.00     0.091 H 
ATOM    147  H   ASG d 304       7.585  36.413  49.633  0.00  0.00     0.132 H 
ATOM    148  H   ASG d 304       8.259  40.343  50.056  0.00  0.00     0.209 HD
ATOM    149  H   ASG d 304       5.415  36.077  51.688  0.00  0.00     0.084 H 
ENDROOT
TORSDOF 38
ENDMDL
MODEL 15
REMARK VINA RESULT:      -7.3      3.741     15.409
REMARK  0 active torsions:
REMARK  status: ('A' for Active; 'I' for Inactive)
REMARK       I    between atoms: C6_2  and  C5_74 
REMARK       I    between atoms: C1_3  and  O4_24 
REMARK       I    between atoms: O6_4  and  C6_26 
REMARK       I    between atoms: C5_5  and  C6_12 
REMARK       I    between atoms: C4_6  and  O4_22 
REMARK       I    between atoms: C6_8  and  C5_90 
REMARK       I    between atoms: C6_8  and  O6_83 
REMARK       I    between atoms: O3_11  and  C3_60 
REMARK       I    between atoms: O3_11  and  C1_29 
REMARK       I    between atoms: C5_13  and  C6_18 
REMARK       I    between atoms: O4_14  and  C4_88 
REMARK       I    between atoms: O4_14  and  S_15 
REMARK       I    between atoms: C6_16  and  C5_28 
REMARK       I    between atoms: S_17  and  O4_22 
REMARK       I    between atoms: C6_18  and  O6_66 
REMARK       I    between atoms: O4_20  and  C4_46 
REMARK       I    between atoms: O4_20  and  C1_61 
REMARK       I    between atoms: O4_21  and  C4_54 
REMARK       I    between atoms: O4_21  and  S_40 
REMARK       I    between atoms: O4_24  and  C4_35 
REMARK       I    between atoms: O3_25  and  C3_48 
REMARK       I    between atoms: C6_26  and  C5_50 
REMARK       I    between atoms: C2_27  and  O2_55 
REMARK       I    between atoms: O3_31  and  C3_37 
REMARK       I    between atoms: C2_32  and  N_72 
REMARK       I    between atoms: C7_33  and  C8_39 
REMARK       I    between atoms: C7_33  and  N_52 
REMARK       I    between atoms: C1_34  and  O4_86 
REMARK       I    between atoms: C3_36  and  O3_87 
REMARK       I    between atoms: C2_47  and  O2_85 
REMARK       I    between atoms: N_52  and  C2_71 
REMARK       I    between atoms: C3_53  and  O3_81 
REMARK       I    between atoms: C1_56  and  O3_81 
REMARK       I    between atoms: C7_57  and  C8_64 
REMARK       I    between atoms: C7_57  and  N_63 
REMARK       I    between atoms: C8_58  and  C7_73 
REMARK       I    between atoms: C1_59  and  O1_68 
REMARK       I    between atoms: N_63  and  C2_67 
REMARK       I    between atoms: C4_69  and  O4_86 
REMARK       I    between atoms: N_72  and  C7_73 
REMARK       I    between atoms: C2_77  and  O2_82 
ROOT
ATOM      1  OSB ASG d 302       5.098  33.138  51.003  0.00  0.00    -0.572 OA
ATOM      2  O6  ASG d 302       3.589  37.207  50.309  0.00  0.00    -0.398 OA
ATOM      3  O4  ASG d 302       5.418  34.443  53.096  0.00  0.00    -0.246 OA
ATOM      4  S   ASG d 302       5.814  33.133  52.263  0.00  0.00     0.252 S 
ATOM      5  C6  ASG d 302       4.277  36.148  50.967  0.00  0.00     0.043 C 
ATOM      6  C2  ASG d 302       5.551  36.477  55.049  0.00  0.00     0.087 C 
ATOM      7  C1  ASG d 302       4.480  37.380  54.453  0.00  0.00     0.154 C 
ATOM      8  O5  ASG d 302       3.946  36.842  53.221  0.00  0.00    -0.349 OA
ATOM      9  C5  ASG d 302       4.963  36.653  52.210  0.00  0.00     0.090 C 
ATOM     10  O7  ASG d 302       5.732  35.251  57.648  0.00  0.00    -0.274 OA
ATOM     11  C3  ASG d 302       6.649  36.321  54.013  0.00  0.00     0.094 C 
ATOM     12  C8  ASG d 302       6.740  37.200  58.623  0.00  0.00    -0.003 C 
ATOM     13  OSA ASG d 302       7.243  33.113  52.011  0.00  0.00    -0.572 OA
ATOM     14  N   ASG d 302       6.099  37.092  56.294  0.00  0.00    -0.349 N 
ATOM     15  C7  ASG d 302       6.136  36.393  57.498  0.00  0.00     0.214 C 
ATOM     16  OSC ASG d 302       5.442  31.960  53.021  0.00  0.00    -0.572 OA
ATOM     17  O3  ASG d 302       7.591  35.453  54.532  0.00  0.00    -0.348 OA
ATOM     18  C4  ASG d 302       6.045  35.692  52.746  0.00  0.00     0.114 C 
ATOM     19  H   ASG d 302       3.154  36.864  49.513  0.00  0.00     0.209 HD
ATOM     20  H   ASG d 302       5.009  35.738  50.304  0.00  0.00     0.078 H 
ATOM     21  H   ASG d 302       3.568  35.396  51.246  0.00  0.00     0.078 H 
ATOM     22  H   ASG d 302       5.141  35.522  55.303  0.00  0.00     0.084 H 
ATOM     23  H   ASG d 302       4.937  38.325  54.248  0.00  0.00     0.132 H 
ATOM     24  H   ASG d 302       5.468  37.564  51.967  0.00  0.00     0.090 H 
ATOM     25  H   ASG d 302       7.090  37.266  53.775  0.00  0.00     0.091 H 
ATOM     26  H   ASG d 302       6.743  36.615  59.519  0.00  0.00     0.040 H 
ATOM     27  H   ASG d 302       6.161  38.087  58.778  0.00  0.00     0.040 H 
ATOM     28  H   ASG d 302       7.744  37.469  58.370  0.00  0.00     0.040 H 
ATOM     29  H   ASG d 302       6.442  38.014  56.264  0.00  0.00     0.163 HD
ATOM     30  H   ASG d 302       6.804  35.524  52.011  0.00  0.00     0.093 H 
ATOM     31  C6  BDP d 303      11.066  37.091  51.811  0.00  0.00     0.206 C 
ATOM     32  O4  BDP d 303      12.932  36.341  53.998  0.00  0.00    -0.348 OA
ATOM     33  O3  BDP d 303      12.034  34.640  56.075  0.00  0.00    -0.390 OA
ATOM     34  C3  BDP d 303      11.173  35.575  55.404  0.00  0.00     0.092 C 
ATOM     35  O6B BDP d 303      11.306  36.095  51.099  0.00  0.00    -0.646 OA
ATOM     36  C4  BDP d 303      11.656  35.800  53.964  0.00  0.00     0.103 C 
ATOM     37  C2  BDP d 303       9.770  35.002  55.348  0.00  0.00     0.110 C 
ATOM     38  O6A BDP d 303      11.084  38.308  51.515  0.00  0.00    -0.646 OA
ATOM     39  C1  BDP d 303       8.866  35.984  54.619  0.00  0.00     0.160 C 
ATOM     40  C5  BDP d 303      10.695  36.799  53.263  0.00  0.00     0.152 C 
ATOM     41  O5  BDP d 303       9.348  36.251  53.275  0.00  0.00    -0.340 OA
ATOM     42  O2  BDP d 303       9.261  34.799  56.669  0.00  0.00    -0.388 OA
ATOM     43  H   BDP d 303      11.719  34.507  56.983  0.00  0.00     0.210 HD
ATOM     44  H   BDP d 303      11.186  36.502  55.938  0.00  0.00     0.091 H 
ATOM     45  H   BDP d 303      11.668  34.872  53.429  0.00  0.00     0.092 H 
ATOM     46  H   BDP d 303       9.797  34.064  54.834  0.00  0.00     0.094 H 
ATOM     47  H   BDP d 303       8.861  36.900  55.171  0.00  0.00     0.133 H 
ATOM     48  H   BDP d 303      10.768  37.716  53.809  0.00  0.00     0.104 H 
ATOM     49  H   BDP d 303       9.234  35.646  57.140  0.00  0.00     0.210 HD
ATOM     50  C1  ASG d 306      16.870  36.935  45.703  0.00  0.00     0.151 C 
ATOM     51  C4  ASG d 306      16.946  35.476  43.161  0.00  0.00     0.089 C 
ATOM     52  C6  ASG d 306      16.192  33.473  44.535  0.00  0.00     0.043 C 
ATOM     53  S   ASG d 306      18.916  34.290  41.999  0.00  0.00     0.252 S 
ATOM     54  O4  ASG d 306      18.305  35.047  43.254  0.00  0.00    -0.249 OA
ATOM     55  OSB ASG d 306      20.303  33.962  42.276  0.00  0.00    -0.572 OA
ATOM     56  OSA ASG d 306      18.168  33.067  41.767  0.00  0.00    -0.572 OA
ATOM     57  C3  ASG d 306      16.928  37.045  43.106  0.00  0.00    -0.014 C 
ATOM     58  C7  ASG d 306      18.723  39.696  45.067  0.00  0.00     0.214 C 
ATOM     59  N   ASG d 306      17.584  39.006  44.645  0.00  0.00    -0.352 N 
ATOM     60  C8  ASG d 306      18.506  41.187  45.137  0.00  0.00    -0.003 C 
ATOM     61  C2  ASG d 306      17.582  37.515  44.520  0.00  0.00     0.062 C 
ATOM     62  O5  ASG d 306      16.845  35.489  45.635  0.00  0.00    -0.349 OA
ATOM     63  O6  ASG d 306      15.590  33.050  45.757  0.00  0.00    -0.398 OA
ATOM     64  O7  ASG d 306      19.791  39.166  45.361  0.00  0.00    -0.274 OA
ATOM     65  OSC ASG d 306      18.836  35.138  40.831  0.00  0.00    -0.572 OA
ATOM     66  C5  ASG d 306      16.192  34.982  44.431  0.00  0.00     0.088 C 
ATOM     67  H   ASG d 306      15.856  37.277  45.711  0.00  0.00     0.132 H 
ATOM     68  H   ASG d 306      16.473  35.080  42.286  0.00  0.00     0.089 H 
ATOM     69  H   ASG d 306      17.202  33.118  44.500  0.00  0.00     0.078 H 
ATOM     70  H   ASG d 306      15.629  33.071  43.718  0.00  0.00     0.078 H 
ATOM     71  H   ASG d 306      15.926  37.409  43.015  0.00  0.00     0.040 H 
ATOM     72  H   ASG d 306      17.467  37.427  42.264  0.00  0.00     0.040 H 
ATOM     73  H   ASG d 306      16.767  39.510  44.425  0.00  0.00     0.163 HD
ATOM     74  H   ASG d 306      17.504  41.416  44.835  0.00  0.00     0.040 H 
ATOM     75  H   ASG d 306      19.196  41.680  44.484  0.00  0.00     0.040 H 
ATOM     76  H   ASG d 306      18.662  41.524  46.140  0.00  0.00     0.040 H 
ATOM     77  H   ASG d 306      18.587  37.146  44.515  0.00  0.00     0.080 H 
ATOM     78  H   ASG d 306      16.092  33.407  46.506  0.00  0.00     0.209 HD
ATOM     79  H   ASG d 306      15.187  35.341  44.347  0.00  0.00     0.090 H 
ATOM     80  C5  BDP d 305      16.936  38.256  49.016  0.00  0.00     0.152 C 
ATOM     81  O6B BDP d 305      14.613  38.402  48.706  0.00  0.00    -0.646 OA
ATOM     82  C6  BDP d 305      15.701  38.964  48.476  0.00  0.00     0.206 C 
ATOM     83  O4  BDP d 305      17.527  37.349  46.858  0.00  0.00    -0.348 OA
ATOM     84  O3  BDP d 305      19.002  35.231  48.050  0.00  0.00    -0.390 OA
ATOM     85  C2  BDP d 305      18.231  35.938  50.200  0.00  0.00     0.110 C 
ATOM     86  C1  BDP d 305      17.775  37.152  51.023  0.00  0.00     0.160 C 
ATOM     87  C4  BDP d 305      17.335  37.015  48.184  0.00  0.00     0.103 C 
ATOM     88  O6A BDP d 305      15.939  40.031  47.859  0.00  0.00    -0.646 OA
ATOM     89  C3  BDP d 305      18.597  36.381  48.797  0.00  0.00     0.092 C 
ATOM     90  O2  BDP d 305      19.347  35.337  50.861  0.00  0.00    -0.388 OA
ATOM     91  O5  BDP d 305      16.649  37.825  50.381  0.00  0.00    -0.340 OA
ATOM     92  H   BDP d 305      17.754  38.945  48.970  0.00  0.00     0.104 H 
ATOM     93  H   BDP d 305      19.797  34.847  48.453  0.00  0.00     0.210 HD
ATOM     94  H   BDP d 305      17.443  35.219  50.121  0.00  0.00     0.094 H 
ATOM     95  H   BDP d 305      18.598  37.833  51.086  0.00  0.00     0.133 H 
ATOM     96  H   BDP d 305      16.541  36.299  48.211  0.00  0.00     0.092 H 
ATOM     97  H   BDP d 305      19.401  37.087  48.793  0.00  0.00     0.091 H 
ATOM     98  H   BDP d 305      20.066  35.984  50.936  0.00  0.00     0.210 HD
ATOM     99  O6B BDP d 301       3.651  40.800  56.906  0.00  0.00    -0.646 OA
ATOM    100  C6  BDP d 301       3.444  39.635  57.312  0.00  0.00     0.206 C 
ATOM    101  O6A BDP d 301       4.071  38.958  58.156  0.00  0.00    -0.646 OA
ATOM    102  O5  BDP d 301       1.104  39.816  56.767  0.00  0.00    -0.340 OA
ATOM    103  C5  BDP d 301       2.245  38.931  56.690  0.00  0.00     0.152 C 
ATOM    104  C3  BDP d 301       1.181  37.829  54.706  0.00  0.00     0.092 C 
ATOM    105  C1  BDP d 301      -0.113  39.232  56.208  0.00  0.00     0.156 C 
ATOM    106  O1  BDP d 301      -1.211  40.249  56.405  0.00  0.00    -0.368 OA
ATOM    107  C4  BDP d 301       2.477  38.484  55.246  0.00  0.00     0.103 C 
ATOM    108  C2  BDP d 301       0.052  38.847  54.767  0.00  0.00     0.110 C 
ATOM    109  O2  BDP d 301      -1.176  38.290  54.305  0.00  0.00    -0.388 OA
ATOM    110  O4  BDP d 301       3.448  37.506  55.340  0.00  0.00    -0.348 OA
ATOM    111  O3  BDP d 301       1.368  37.424  53.349  0.00  0.00    -0.390 OA
ATOM    112  H   BDP d 301       2.073  38.033  57.244  0.00  0.00     0.104 H 
ATOM    113  H   BDP d 301       0.942  36.972  55.301  0.00  0.00     0.091 H 
ATOM    114  H   BDP d 301      -0.353  38.318  56.709  0.00  0.00     0.133 H 
ATOM    115  H   BDP d 301      -0.977  41.070  55.945  0.00  0.00     0.212 HD
ATOM    116  H   BDP d 301       2.752  39.295  54.605  0.00  0.00     0.092 H 
ATOM    117  H   BDP d 301       0.291  39.685  54.146  0.00  0.00     0.094 H 
ATOM    118  H   BDP d 301      -1.412  37.526  54.856  0.00  0.00     0.210 HD
ATOM    119  H   BDP d 301       1.585  38.199  52.807  0.00  0.00     0.210 HD
ATOM    120  OSC ASG d 304      18.891  34.769  56.099  0.00  0.00    -0.572 OA
ATOM    121  O3  ASG d 304      17.388  36.745  52.318  0.00  0.00    -0.348 OA
ATOM    122  C5  ASG d 304      15.298  33.726  53.173  0.00  0.00     0.090 C 
ATOM    123  C6  ASG d 304      15.514  32.403  53.867  0.00  0.00     0.043 C 
ATOM    124  O4  ASG d 304      17.053  34.835  54.434  0.00  0.00    -0.246 OA
ATOM    125  C7  ASG d 304      14.342  39.038  53.189  0.00  0.00     0.214 C 
ATOM    126  C8  ASG d 304      14.042  40.211  52.284  0.00  0.00    -0.003 C 
ATOM    127  S   ASG d 304      18.531  34.332  54.765  0.00  0.00     0.252 S 
ATOM    128  OSB ASG d 304      18.587  32.883  54.696  0.00  0.00    -0.572 OA
ATOM    129  N   ASG d 304      14.791  37.925  52.493  0.00  0.00    -0.349 N 
ATOM    130  C4  ASG d 304      16.580  34.588  53.100  0.00  0.00     0.114 C 
ATOM    131  C3  ASG d 304      16.237  35.919  52.400  0.00  0.00     0.094 C 
ATOM    132  C1  ASG d 304      13.928  35.722  53.258  0.00  0.00     0.154 C 
ATOM    133  O7  ASG d 304      14.198  39.080  54.400  0.00  0.00    -0.274 OA
ATOM    134  O6  ASG d 304      14.472  31.483  53.537  0.00  0.00    -0.398 OA
ATOM    135  O5  ASG d 304      14.249  34.446  53.887  0.00  0.00    -0.349 OA
ATOM    136  C2  ASG d 304      15.152  36.641  53.181  0.00  0.00     0.087 C 
ATOM    137  OSA ASG d 304      19.463  34.888  53.798  0.00  0.00    -0.572 OA
ATOM    138  H   ASG d 304      15.014  33.530  52.160  0.00  0.00     0.090 H 
ATOM    139  H   ASG d 304      15.522  32.559  54.925  0.00  0.00     0.078 H 
ATOM    140  H   ASG d 304      16.448  31.995  53.544  0.00  0.00     0.078 H 
ATOM    141  H   ASG d 304      14.243  39.940  51.268  0.00  0.00     0.040 H 
ATOM    142  H   ASG d 304      14.658  41.041  52.559  0.00  0.00     0.040 H 
ATOM    143  H   ASG d 304      13.012  40.484  52.382  0.00  0.00     0.040 H 
ATOM    144  H   ASG d 304      14.876  37.980  51.514  0.00  0.00     0.163 HD
ATOM    145  H   ASG d 304      17.345  34.083  52.548  0.00  0.00     0.093 H 
ATOM    146  H   ASG d 304      15.891  35.708  51.409  0.00  0.00     0.091 H 
ATOM    147  H   ASG d 304      13.599  35.535  52.257  0.00  0.00     0.132 H 
ATOM    148  H   ASG d 304      13.618  31.845  53.825  0.00  0.00     0.209 HD
ATOM    149  H   ASG d 304      15.499  36.874  54.166  0.00  0.00     0.084 H 
ENDROOT
TORSDOF 38
ENDMDL
MODEL 16
REMARK VINA RESULT:      -7.1      6.543     11.796
REMARK  0 active torsions:
REMARK  status: ('A' for Active; 'I' for Inactive)
REMARK       I    between atoms: C6_2  and  C5_74 
REMARK       I    between atoms: C1_3  and  O4_24 
REMARK       I    between atoms: O6_4  and  C6_26 
REMARK       I    between atoms: C5_5  and  C6_12 
REMARK       I    between atoms: C4_6  and  O4_22 
REMARK       I    between atoms: C6_8  and  C5_90 
REMARK       I    between atoms: C6_8  and  O6_83 
REMARK       I    between atoms: O3_11  and  C3_60 
REMARK       I    between atoms: O3_11  and  C1_29 
REMARK       I    between atoms: C5_13  and  C6_18 
REMARK       I    between atoms: O4_14  and  C4_88 
REMARK       I    between atoms: O4_14  and  S_15 
REMARK       I    between atoms: C6_16  and  C5_28 
REMARK       I    between atoms: S_17  and  O4_22 
REMARK       I    between atoms: C6_18  and  O6_66 
REMARK       I    between atoms: O4_20  and  C4_46 
REMARK       I    between atoms: O4_20  and  C1_61 
REMARK       I    between atoms: O4_21  and  C4_54 
REMARK       I    between atoms: O4_21  and  S_40 
REMARK       I    between atoms: O4_24  and  C4_35 
REMARK       I    between atoms: O3_25  and  C3_48 
REMARK       I    between atoms: C6_26  and  C5_50 
REMARK       I    between atoms: C2_27  and  O2_55 
REMARK       I    between atoms: O3_31  and  C3_37 
REMARK       I    between atoms: C2_32  and  N_72 
REMARK       I    between atoms: C7_33  and  C8_39 
REMARK       I    between atoms: C7_33  and  N_52 
REMARK       I    between atoms: C1_34  and  O4_86 
REMARK       I    between atoms: C3_36  and  O3_87 
REMARK       I    between atoms: C2_47  and  O2_85 
REMARK       I    between atoms: N_52  and  C2_71 
REMARK       I    between atoms: C3_53  and  O3_81 
REMARK       I    between atoms: C1_56  and  O3_81 
REMARK       I    between atoms: C7_57  and  C8_64 
REMARK       I    between atoms: C7_57  and  N_63 
REMARK       I    between atoms: C8_58  and  C7_73 
REMARK       I    between atoms: C1_59  and  O1_68 
REMARK       I    between atoms: N_63  and  C2_67 
REMARK       I    between atoms: C4_69  and  O4_86 
REMARK       I    between atoms: N_72  and  C7_73 
REMARK       I    between atoms: C2_77  and  O2_82 
ROOT
ATOM      1  OSB ASG d 302      14.991  39.248  50.428  0.00  0.00    -0.572 OA
ATOM      2  O6  ASG d 302      16.572  35.174  50.893  0.00  0.00    -0.398 OA
ATOM      3  O4  ASG d 302      14.070  38.304  52.536  0.00  0.00    -0.246 OA
ATOM      4  S   ASG d 302      13.946  39.440  51.415  0.00  0.00     0.252 S 
ATOM      5  C6  ASG d 302      15.742  36.305  51.140  0.00  0.00     0.043 C 
ATOM      6  C2  ASG d 302      13.358  36.623  54.690  0.00  0.00     0.087 C 
ATOM      7  C1  ASG d 302      14.539  35.670  54.583  0.00  0.00     0.154 C 
ATOM      8  O5  ASG d 302      15.409  36.011  53.480  0.00  0.00    -0.349 OA
ATOM      9  C5  ASG d 302      14.723  35.993  52.206  0.00  0.00     0.090 C 
ATOM     10  O7  ASG d 302      12.465  38.262  56.883  0.00  0.00    -0.274 OA
ATOM     11  C3  ASG d 302      12.601  36.566  53.375  0.00  0.00     0.094 C 
ATOM     12  C8  ASG d 302      11.191  36.471  57.852  0.00  0.00    -0.003 C 
ATOM     13  OSA ASG d 302      12.648  39.369  50.770  0.00  0.00    -0.572 OA
ATOM     14  N   ASG d 302      12.469  36.208  55.816  0.00  0.00    -0.349 N 
ATOM     15  C7  ASG d 302      12.103  37.097  56.822  0.00  0.00     0.214 C 
ATOM     16  OSC ASG d 302      14.106  40.736  52.035  0.00  0.00    -0.572 OA
ATOM     17  O3  ASG d 302      11.563  37.476  53.452  0.00  0.00    -0.348 OA
ATOM     18  C4  ASG d 302      13.549  36.993  52.242  0.00  0.00     0.114 C 
ATOM     19  H   ASG d 302      17.220  35.392  50.206  0.00  0.00     0.209 HD
ATOM     20  H   ASG d 302      15.234  36.572  50.237  0.00  0.00     0.078 H 
ATOM     21  H   ASG d 302      16.354  37.116  51.475  0.00  0.00     0.078 H 
ATOM     22  H   ASG d 302      13.693  37.621  54.882  0.00  0.00     0.084 H 
ATOM     23  H   ASG d 302      14.145  34.689  54.423  0.00  0.00     0.132 H 
ATOM     24  H   ASG d 302      14.295  35.037  51.989  0.00  0.00     0.090 H 
ATOM     25  H   ASG d 302      12.231  35.579  53.188  0.00  0.00     0.091 H 
ATOM     26  H   ASG d 302      10.944  37.198  58.597  0.00  0.00     0.040 H 
ATOM     27  H   ASG d 302      11.689  35.643  58.313  0.00  0.00     0.040 H 
ATOM     28  H   ASG d 302      10.297  36.130  57.376  0.00  0.00     0.040 H 
ATOM     29  H   ASG d 302      12.134  35.283  55.848  0.00  0.00     0.163 HD
ATOM     30  H   ASG d 302      13.033  37.009  51.305  0.00  0.00     0.093 H 
ATOM     31  C6  BDP d 303       8.979  35.286  50.182  0.00  0.00     0.206 C 
ATOM     32  O4  BDP d 303       6.581  36.329  51.592  0.00  0.00    -0.348 OA
ATOM     33  O3  BDP d 303       6.879  38.385  53.516  0.00  0.00    -0.390 OA
ATOM     34  C3  BDP d 303       7.880  37.380  53.284  0.00  0.00     0.092 C 
ATOM     35  O6B BDP d 303       8.966  36.139  49.272  0.00  0.00    -0.646 OA
ATOM     36  C4  BDP d 303       7.822  36.900  51.827  0.00  0.00     0.103 C 
ATOM     37  C2  BDP d 303       9.249  37.983  53.529  0.00  0.00     0.110 C 
ATOM     38  O6A BDP d 303       9.027  34.037  50.106  0.00  0.00    -0.646 OA
ATOM     39  C1  BDP d 303      10.308  36.924  53.264  0.00  0.00     0.160 C 
ATOM     40  C5  BDP d 303       8.926  35.831  51.608  0.00  0.00     0.152 C 
ATOM     41  O5  BDP d 303      10.224  36.418  51.905  0.00  0.00    -0.340 OA
ATOM     42  O2  BDP d 303       9.365  38.423  54.886  0.00  0.00    -0.388 OA
ATOM     43  H   BDP d 303       6.924  38.680  54.439  0.00  0.00     0.210 HD
ATOM     44  H   BDP d 303       7.701  36.557  53.944  0.00  0.00     0.091 H 
ATOM     45  H   BDP d 303       7.976  37.724  51.161  0.00  0.00     0.092 H 
ATOM     46  H   BDP d 303       9.384  38.820  52.877  0.00  0.00     0.094 H 
ATOM     47  H   BDP d 303      10.142  36.114  53.943  0.00  0.00     0.133 H 
ATOM     48  H   BDP d 303       8.688  35.016  52.259  0.00  0.00     0.104 H 
ATOM     49  H   BDP d 303       9.245  37.668  55.483  0.00  0.00     0.210 HD
ATOM     50  C1  ASG d 306       5.150  34.216  42.752  0.00  0.00     0.151 C 
ATOM     51  C4  ASG d 306       5.821  35.223  40.082  0.00  0.00     0.089 C 
ATOM     52  C6  ASG d 306       6.184  37.453  41.249  0.00  0.00     0.043 C 
ATOM     53  S   ASG d 306       4.279  36.129  38.226  0.00  0.00     0.252 S 
ATOM     54  O4  ASG d 306       4.498  35.615  39.712  0.00  0.00    -0.249 OA
ATOM     55  OSB ASG d 306       2.876  36.451  38.040  0.00  0.00    -0.572 OA
ATOM     56  OSA ASG d 306       5.081  37.320  38.009  0.00  0.00    -0.572 OA
ATOM     57  C3  ASG d 306       5.829  33.668  40.302  0.00  0.00    -0.014 C 
ATOM     58  C7  ASG d 306       3.511  31.325  42.100  0.00  0.00     0.214 C 
ATOM     59  N   ASG d 306       4.734  31.972  41.905  0.00  0.00    -0.352 N 
ATOM     60  C8  ASG d 306       3.677  29.875  42.482  0.00  0.00    -0.003 C 
ATOM     61  C2  ASG d 306       4.794  33.421  41.533  0.00  0.00     0.062 C 
ATOM     62  O5  ASG d 306       5.216  35.629  42.447  0.00  0.00    -0.349 OA
ATOM     63  O6  ASG d 306       6.421  38.096  42.500  0.00  0.00    -0.398 OA
ATOM     64  O7  ASG d 306       2.412  31.860  41.986  0.00  0.00    -0.274 OA
ATOM     65  OSC ASG d 306       4.675  35.100  37.290  0.00  0.00    -0.572 OA
ATOM     66  C5  ASG d 306       6.191  35.949  41.408  0.00  0.00     0.088 C 
ATOM     67  H   ASG d 306       6.114  33.915  43.104  0.00  0.00     0.132 H 
ATOM     68  H   ASG d 306       6.529  35.482  39.321  0.00  0.00     0.089 H 
ATOM     69  H   ASG d 306       5.231  37.762  40.871  0.00  0.00     0.078 H 
ATOM     70  H   ASG d 306       6.962  37.730  40.568  0.00  0.00     0.078 H 
ATOM     71  H   ASG d 306       6.810  33.329  40.561  0.00  0.00     0.040 H 
ATOM     72  H   ASG d 306       5.545  33.132  39.421  0.00  0.00     0.040 H 
ATOM     73  H   ASG d 306       5.571  31.467  42.014  0.00  0.00     0.163 HD
ATOM     74  H   ASG d 306       4.719  29.634  42.519  0.00  0.00     0.040 H 
ATOM     75  H   ASG d 306       3.193  29.257  41.755  0.00  0.00     0.040 H 
ATOM     76  H   ASG d 306       3.238  29.707  43.443  0.00  0.00     0.040 H 
ATOM     77  H   ASG d 306       3.837  33.749  41.182  0.00  0.00     0.080 H 
ATOM     78  H   ASG d 306       5.722  37.852  43.127  0.00  0.00     0.209 HD
ATOM     79  H   ASG d 306       7.173  35.615  41.674  0.00  0.00     0.090 H 
ATOM     80  C5  BDP d 305       4.126  33.469  46.086  0.00  0.00     0.152 C 
ATOM     81  O6B BDP d 305       6.439  33.352  46.474  0.00  0.00    -0.646 OA
ATOM     82  C6  BDP d 305       5.453  32.723  46.046  0.00  0.00     0.206 C 
ATOM     83  O4  BDP d 305       4.186  33.980  43.727  0.00  0.00    -0.348 OA
ATOM     84  O3  BDP d 305       2.466  36.216  44.075  0.00  0.00    -0.390 OA
ATOM     85  C2  BDP d 305       2.584  35.907  46.443  0.00  0.00     0.110 C 
ATOM     86  C1  BDP d 305       2.769  34.865  47.555  0.00  0.00     0.160 C 
ATOM     87  C4  BDP d 305       3.999  34.538  44.976  0.00  0.00     0.103 C 
ATOM     88  O6A BDP d 305       5.384  31.560  45.579  0.00  0.00    -0.646 OA
ATOM     89  C3  BDP d 305       2.624  35.223  45.091  0.00  0.00     0.092 C 
ATOM     90  O2  BDP d 305       1.335  36.573  46.649  0.00  0.00    -0.388 OA
ATOM     91  O5  BDP d 305       4.021  34.133  47.383  0.00  0.00    -0.340 OA
ATOM     92  H   BDP d 305       3.345  32.755  45.930  0.00  0.00     0.104 H 
ATOM     93  H   BDP d 305       1.596  36.635  44.165  0.00  0.00     0.210 HD
ATOM     94  H   BDP d 305       3.373  36.629  46.468  0.00  0.00     0.094 H 
ATOM     95  H   BDP d 305       1.952  34.177  47.499  0.00  0.00     0.133 H 
ATOM     96  H   BDP d 305       4.764  35.274  45.104  0.00  0.00     0.092 H 
ATOM     97  H   BDP d 305       1.844  34.499  44.980  0.00  0.00     0.091 H 
ATOM     98  H   BDP d 305       0.615  35.923  46.628  0.00  0.00     0.210 HD
ATOM     99  O6B BDP d 301      14.585  32.741  57.717  0.00  0.00    -0.646 OA
ATOM    100  C6  BDP d 301      14.687  33.964  57.960  0.00  0.00     0.206 C 
ATOM    101  O6A BDP d 301      13.857  34.752  58.464  0.00  0.00    -0.646 OA
ATOM    102  O5  BDP d 301      17.082  33.774  58.136  0.00  0.00    -0.340 OA
ATOM    103  C5  BDP d 301      16.024  34.594  57.591  0.00  0.00     0.152 C 
ATOM    104  C3  BDP d 301      17.624  35.383  55.830  0.00  0.00     0.092 C 
ATOM    105  C1  BDP d 301      18.416  34.297  57.853  0.00  0.00     0.156 C 
ATOM    106  O1  BDP d 301      19.397  33.366  58.522  0.00  0.00    -0.368 OA
ATOM    107  C4  BDP d 301      16.218  34.783  56.087  0.00  0.00     0.103 C 
ATOM    108  C2  BDP d 301      18.673  34.428  56.380  0.00  0.00     0.110 C 
ATOM    109  O2  BDP d 301      19.990  34.941  56.195  0.00  0.00    -0.388 OA
ATOM    110  O4  BDP d 301      15.275  35.729  55.734  0.00  0.00    -0.348 OA
ATOM    111  O3  BDP d 301      17.836  35.547  54.427  0.00  0.00    -0.390 OA
ATOM    112  H   BDP d 301      16.045  35.578  58.009  0.00  0.00     0.104 H 
ATOM    113  H   BDP d 301      17.697  36.335  56.313  0.00  0.00     0.091 H 
ATOM    114  H   BDP d 301      18.519  35.290  58.237  0.00  0.00     0.133 H 
ATOM    115  H   BDP d 301      19.291  32.471  58.162  0.00  0.00     0.212 HD
ATOM    116  H   BDP d 301      16.123  33.868  55.542  0.00  0.00     0.092 H 
ATOM    117  H   BDP d 301      18.607  33.490  55.870  0.00  0.00     0.094 H 
ATOM    118  H   BDP d 301      20.072  35.794  56.651  0.00  0.00     0.210 HD
ATOM    119  H   BDP d 301      17.769  34.684  53.987  0.00  0.00     0.210 HD
ATOM    120  OSC ASG d 304       0.295  38.029  51.625  0.00  0.00    -0.572 OA
ATOM    121  O3  ASG d 304       2.779  35.497  48.818  0.00  0.00    -0.348 OA
ATOM    122  C5  ASG d 304       4.587  38.686  49.698  0.00  0.00     0.090 C 
ATOM    123  C6  ASG d 304       4.203  40.098  50.067  0.00  0.00     0.043 C 
ATOM    124  O4  ASG d 304       2.529  37.746  50.584  0.00  0.00    -0.246 OA
ATOM    125  C7  ASG d 304       5.417  33.488  50.891  0.00  0.00     0.214 C 
ATOM    126  C8  ASG d 304       5.944  32.190  50.322  0.00  0.00    -0.003 C 
ATOM    127  S   ASG d 304       1.026  38.247  50.393  0.00  0.00     0.252 S 
ATOM    128  OSB ASG d 304       1.014  39.661  50.065  0.00  0.00    -0.572 OA
ATOM    129  N   ASG d 304       5.201  34.452  49.917  0.00  0.00    -0.349 N 
ATOM    130  C4  ASG d 304       3.365  37.781  49.416  0.00  0.00     0.114 C 
ATOM    131  C3  ASG d 304       3.872  36.363  49.078  0.00  0.00     0.094 C 
ATOM    132  C1  ASG d 304       5.845  36.780  50.507  0.00  0.00     0.154 C 
ATOM    133  O7  ASG d 304       5.211  33.655  52.082  0.00  0.00    -0.274 OA
ATOM    134  O6  ASG d 304       5.309  40.985  49.892  0.00  0.00    -0.398 OA
ATOM    135  O5  ASG d 304       5.378  38.132  50.792  0.00  0.00    -0.349 OA
ATOM    136  C2  ASG d 304       4.679  35.821  50.246  0.00  0.00     0.087 C 
ATOM    137  OSA ASG d 304       0.398  37.505  49.312  0.00  0.00    -0.572 OA
ATOM    138  H   ASG d 304       5.149  38.719  48.789  0.00  0.00     0.090 H 
ATOM    139  H   ASG d 304       3.892  40.123  51.090  0.00  0.00     0.078 H 
ATOM    140  H   ASG d 304       3.405  40.415  49.429  0.00  0.00     0.078 H 
ATOM    141  H   ASG d 304       6.043  32.280  49.260  0.00  0.00     0.040 H 
ATOM    142  H   ASG d 304       5.262  31.398  50.550  0.00  0.00     0.040 H 
ATOM    143  H   ASG d 304       6.899  31.973  50.752  0.00  0.00     0.040 H 
ATOM    144  H   ASG d 304       5.397  34.231  48.978  0.00  0.00     0.163 HD
ATOM    145  H   ASG d 304       2.796  38.160  48.592  0.00  0.00     0.093 H 
ATOM    146  H   ASG d 304       4.488  36.417  48.205  0.00  0.00     0.091 H 
ATOM    147  H   ASG d 304       6.448  36.808  49.623  0.00  0.00     0.132 H 
ATOM    148  H   ASG d 304       6.040  40.707  50.467  0.00  0.00     0.209 HD
ATOM    149  H   ASG d 304       4.063  35.745  51.117  0.00  0.00     0.084 H 
ENDROOT
TORSDOF 38
ENDMDL
MODEL 17
REMARK VINA RESULT:      -7.1      7.171     12.249
REMARK  0 active torsions:
REMARK  status: ('A' for Active; 'I' for Inactive)
REMARK       I    between atoms: C6_2  and  C5_74 
REMARK       I    between atoms: C1_3  and  O4_24 
REMARK       I    between atoms: O6_4  and  C6_26 
REMARK       I    between atoms: C5_5  and  C6_12 
REMARK       I    between atoms: C4_6  and  O4_22 
REMARK       I    between atoms: C6_8  and  C5_90 
REMARK       I    between atoms: C6_8  and  O6_83 
REMARK       I    between atoms: O3_11  and  C3_60 
REMARK       I    between atoms: O3_11  and  C1_29 
REMARK       I    between atoms: C5_13  and  C6_18 
REMARK       I    between atoms: O4_14  and  C4_88 
REMARK       I    between atoms: O4_14  and  S_15 
REMARK       I    between atoms: C6_16  and  C5_28 
REMARK       I    between atoms: S_17  and  O4_22 
REMARK       I    between atoms: C6_18  and  O6_66 
REMARK       I    between atoms: O4_20  and  C4_46 
REMARK       I    between atoms: O4_20  and  C1_61 
REMARK       I    between atoms: O4_21  and  C4_54 
REMARK       I    between atoms: O4_21  and  S_40 
REMARK       I    between atoms: O4_24  and  C4_35 
REMARK       I    between atoms: O3_25  and  C3_48 
REMARK       I    between atoms: C6_26  and  C5_50 
REMARK       I    between atoms: C2_27  and  O2_55 
REMARK       I    between atoms: O3_31  and  C3_37 
REMARK       I    between atoms: C2_32  and  N_72 
REMARK       I    between atoms: C7_33  and  C8_39 
REMARK       I    between atoms: C7_33  and  N_52 
REMARK       I    between atoms: C1_34  and  O4_86 
REMARK       I    between atoms: C3_36  and  O3_87 
REMARK       I    between atoms: C2_47  and  O2_85 
REMARK       I    between atoms: N_52  and  C2_71 
REMARK       I    between atoms: C3_53  and  O3_81 
REMARK       I    between atoms: C1_56  and  O3_81 
REMARK       I    between atoms: C7_57  and  C8_64 
REMARK       I    between atoms: C7_57  and  N_63 
REMARK       I    between atoms: C8_58  and  C7_73 
REMARK       I    between atoms: C1_59  and  O1_68 
REMARK       I    between atoms: N_63  and  C2_67 
REMARK       I    between atoms: C4_69  and  O4_86 
REMARK       I    between atoms: N_72  and  C7_73 
REMARK       I    between atoms: C2_77  and  O2_82 
ROOT
ATOM      1  OSB ASG d 302      13.078  39.257  49.946  0.00  0.00    -0.572 OA
ATOM      2  O6  ASG d 302      14.559  35.158  50.507  0.00  0.00    -0.398 OA
ATOM      3  O4  ASG d 302      12.590  38.579  52.288  0.00  0.00    -0.246 OA
ATOM      4  S   ASG d 302      12.276  39.608  51.102  0.00  0.00     0.252 S 
ATOM      5  C6  ASG d 302      13.846  36.356  50.798  0.00  0.00     0.043 C 
ATOM      6  C2  ASG d 302      12.287  37.161  54.710  0.00  0.00     0.087 C 
ATOM      7  C1  ASG d 302      13.380  36.131  54.464  0.00  0.00     0.154 C 
ATOM      8  O5  ASG d 302      14.007  36.310  53.174  0.00  0.00    -0.349 OA
ATOM      9  C5  ASG d 302      13.066  36.211  52.080  0.00  0.00     0.090 C 
ATOM     10  O7  ASG d 302      11.947  39.056  56.852  0.00  0.00    -0.274 OA
ATOM     11  C3  ASG d 302      11.265  37.024  53.596  0.00  0.00     0.094 C 
ATOM     12  C8  ASG d 302      10.839  37.449  58.251  0.00  0.00    -0.003 C 
ATOM     13  OSA ASG d 302      10.869  39.555  50.752  0.00  0.00    -0.572 OA
ATOM     14  N   ASG d 302      11.642  36.912  56.034  0.00  0.00    -0.349 N 
ATOM     15  C7  ASG d 302      11.534  37.915  56.994  0.00  0.00     0.214 C 
ATOM     16  OSC ASG d 302      12.615  40.945  51.532  0.00  0.00    -0.572 OA
ATOM     17  O3  ASG d 302      10.305  37.999  53.788  0.00  0.00    -0.348 OA
ATOM     18  C4  ASG d 302      11.967  37.280  52.252  0.00  0.00     0.114 C 
ATOM     19  H   ASG d 302      15.054  35.268  49.681  0.00  0.00     0.209 HD
ATOM     20  H   ASG d 302      13.169  36.566  49.997  0.00  0.00     0.078 H 
ATOM     21  H   ASG d 302      14.547  37.156  50.909  0.00  0.00     0.078 H 
ATOM     22  H   ASG d 302      12.695  38.150  54.721  0.00  0.00     0.084 H 
ATOM     23  H   ASG d 302      12.922  35.165  54.496  0.00  0.00     0.132 H 
ATOM     24  H   ASG d 302      12.563  35.267  52.060  0.00  0.00     0.090 H 
ATOM     25  H   ASG d 302      10.825  36.049  53.596  0.00  0.00     0.091 H 
ATOM     26  H   ASG d 302      10.784  38.258  58.949  0.00  0.00     0.040 H 
ATOM     27  H   ASG d 302      11.390  36.640  58.685  0.00  0.00     0.040 H 
ATOM     28  H   ASG d 302       9.850  37.119  58.011  0.00  0.00     0.040 H 
ATOM     29  H   ASG d 302      11.285  36.017  56.234  0.00  0.00     0.163 HD
ATOM     30  H   ASG d 302      11.264  37.238  51.446  0.00  0.00     0.093 H 
ATOM     31  C6  BDP d 303       6.999  35.668  51.381  0.00  0.00     0.206 C 
ATOM     32  O4  BDP d 303       4.999  36.988  53.137  0.00  0.00    -0.348 OA
ATOM     33  O3  BDP d 303       5.782  39.197  54.726  0.00  0.00    -0.390 OA
ATOM     34  C3  BDP d 303       6.670  38.115  54.401  0.00  0.00     0.092 C 
ATOM     35  O6B BDP d 303       6.827  36.428  50.407  0.00  0.00    -0.646 OA
ATOM     36  C4  BDP d 303       6.284  37.501  53.047  0.00  0.00     0.103 C 
ATOM     37  C2  BDP d 303       8.083  38.653  54.290  0.00  0.00     0.110 C 
ATOM     38  O6A BDP d 303       6.980  34.416  51.430  0.00  0.00    -0.646 OA
ATOM     39  C1  BDP d 303       9.018  37.511  53.926  0.00  0.00     0.160 C 
ATOM     40  C5  BDP d 303       7.273  36.350  52.719  0.00  0.00     0.152 C 
ATOM     41  O5  BDP d 303       8.626  36.882  52.676  0.00  0.00    -0.340 OA
ATOM     42  O2  BDP d 303       8.503  39.214  55.537  0.00  0.00    -0.388 OA
ATOM     43  H   BDP d 303       6.034  39.576  55.582  0.00  0.00     0.210 HD
ATOM     44  H   BDP d 303       6.603  37.371  55.167  0.00  0.00     0.091 H 
ATOM     45  H   BDP d 303       6.325  38.245  52.279  0.00  0.00     0.092 H 
ATOM     46  H   BDP d 303       8.109  39.413  53.537  0.00  0.00     0.094 H 
ATOM     47  H   BDP d 303       8.968  36.782  54.707  0.00  0.00     0.133 H 
ATOM     48  H   BDP d 303       7.146  35.618  53.489  0.00  0.00     0.104 H 
ATOM     49  H   BDP d 303       8.482  38.529  56.224  0.00  0.00     0.210 HD
ATOM     50  C1  ASG d 306       1.637  34.123  45.066  0.00  0.00     0.151 C 
ATOM     51  C4  ASG d 306       1.763  34.825  42.222  0.00  0.00     0.089 C 
ATOM     52  C6  ASG d 306       2.455  37.131  43.043  0.00  0.00     0.043 C 
ATOM     53  S   ASG d 306      -0.101  35.641  40.641  0.00  0.00     0.252 S 
ATOM     54  O4  ASG d 306       0.408  35.260  42.095  0.00  0.00    -0.249 OA
ATOM     55  OSB ASG d 306      -1.498  36.029  40.717  0.00  0.00    -0.572 OA
ATOM     56  OSA ASG d 306       0.683  36.753  40.136  0.00  0.00    -0.572 OA
ATOM     57  C3  ASG d 306       1.756  33.301  42.602  0.00  0.00    -0.014 C 
ATOM     58  C7  ASG d 306      -0.217  31.289  45.083  0.00  0.00     0.214 C 
ATOM     59  N   ASG d 306       0.960  31.838  44.570  0.00  0.00    -0.352 N 
ATOM     60  C8  ASG d 306      -0.032  29.876  45.575  0.00  0.00    -0.003 C 
ATOM     61  C2  ASG d 306       0.998  33.238  44.040  0.00  0.00     0.062 C 
ATOM     62  O5  ASG d 306       1.692  35.494  44.605  0.00  0.00    -0.349 OA
ATOM     63  O6  ASG d 306       2.978  37.875  44.141  0.00  0.00    -0.398 OA
ATOM     64  O7  ASG d 306      -1.293  31.878  45.143  0.00  0.00    -0.274 OA
ATOM     65  OSC ASG d 306       0.045  34.504  39.760  0.00  0.00    -0.572 OA
ATOM     66  C5  ASG d 306       2.436  35.651  43.357  0.00  0.00     0.088 C 
ATOM     67  H   ASG d 306       2.641  33.799  45.241  0.00  0.00     0.132 H 
ATOM     68  H   ASG d 306       2.302  34.965  41.308  0.00  0.00     0.089 H 
ATOM     69  H   ASG d 306       1.456  37.459  42.840  0.00  0.00     0.078 H 
ATOM     70  H   ASG d 306       3.080  37.293  42.189  0.00  0.00     0.078 H 
ATOM     71  H   ASG d 306       2.755  32.928  42.687  0.00  0.00     0.040 H 
ATOM     72  H   ASG d 306       1.270  32.701  41.861  0.00  0.00     0.040 H 
ATOM     73  H   ASG d 306       1.781  31.295  44.556  0.00  0.00     0.163 HD
ATOM     74  H   ASG d 306       0.984  29.575  45.421  0.00  0.00     0.040 H 
ATOM     75  H   ASG d 306      -0.684  29.221  45.036  0.00  0.00     0.040 H 
ATOM     76  H   ASG d 306      -0.263  29.828  46.619  0.00  0.00     0.040 H 
ATOM     77  H   ASG d 306       0.002  33.589  43.862  0.00  0.00     0.080 H 
ATOM     78  H   ASG d 306       2.419  37.737  44.922  0.00  0.00     0.209 HD
ATOM     79  H   ASG d 306       3.438  35.285  43.448  0.00  0.00     0.090 H 
ATOM     80  C5  BDP d 305       1.317  33.766  48.601  0.00  0.00     0.152 C 
ATOM     81  O6B BDP d 305       3.653  33.545  48.510  0.00  0.00    -0.646 OA
ATOM     82  C6  BDP d 305       2.574  32.939  48.366  0.00  0.00     0.206 C 
ATOM     83  O4  BDP d 305       0.893  34.042  46.240  0.00  0.00    -0.348 OA
ATOM     84  O3  BDP d 305      -0.622  36.403  46.695  0.00  0.00    -0.390 OA
ATOM     85  C2  BDP d 305      -0.015  36.318  49.006  0.00  0.00     0.110 C 
ATOM     86  C1  BDP d 305       0.361  35.378  50.161  0.00  0.00     0.160 C 
ATOM     87  C4  BDP d 305       0.999  34.728  47.433  0.00  0.00     0.103 C 
ATOM     88  O6A BDP d 305       2.361  31.743  48.051  0.00  0.00    -0.646 OA
ATOM     89  C3  BDP d 305      -0.292  35.505  47.757  0.00  0.00     0.092 C 
ATOM     90  O2  BDP d 305      -1.164  37.076  49.395  0.00  0.00    -0.388 OA
ATOM     91  O5  BDP d 305       1.517  34.557  49.812  0.00  0.00    -0.340 OA
ATOM     92  H   BDP d 305       0.492  33.089  48.688  0.00  0.00     0.104 H 
ATOM     93  H   BDP d 305      -1.437  36.881  46.919  0.00  0.00     0.210 HD
ATOM     94  H   BDP d 305       0.789  36.989  48.789  0.00  0.00     0.094 H 
ATOM     95  H   BDP d 305      -0.477  34.739  50.350  0.00  0.00     0.133 H 
ATOM     96  H   BDP d 305       1.802  35.426  47.319  0.00  0.00     0.092 H 
ATOM     97  H   BDP d 305      -1.105  34.823  47.889  0.00  0.00     0.091 H 
ATOM     98  H   BDP d 305      -1.897  36.472  49.593  0.00  0.00     0.210 HD
ATOM     99  O6B BDP d 301      13.975  33.522  57.816  0.00  0.00    -0.646 OA
ATOM    100  C6  BDP d 301      14.175  34.754  57.900  0.00  0.00     0.206 C 
ATOM    101  O6A BDP d 301      13.503  35.636  58.478  0.00  0.00    -0.646 OA
ATOM    102  O5  BDP d 301      16.543  34.434  57.594  0.00  0.00    -0.340 OA
ATOM    103  C5  BDP d 301      15.426  35.261  57.195  0.00  0.00     0.152 C 
ATOM    104  C3  BDP d 301      16.645  35.776  55.067  0.00  0.00     0.092 C 
ATOM    105  C1  BDP d 301      17.806  34.844  56.985  0.00  0.00     0.156 C 
ATOM    106  O1  BDP d 301      18.869  33.923  57.532  0.00  0.00    -0.368 OA
ATOM    107  C4  BDP d 301      15.303  35.293  55.672  0.00  0.00     0.103 C 
ATOM    108  C2  BDP d 301      17.748  34.816  55.486  0.00  0.00     0.110 C 
ATOM    109  O2  BDP d 301      19.015  35.228  54.978  0.00  0.00    -0.388 OA
ATOM    110  O4  BDP d 301      14.345  36.256  55.423  0.00  0.00    -0.348 OA
ATOM    111  O3  BDP d 301      16.559  35.791  53.640  0.00  0.00    -0.390 OA
ATOM    112  H   BDP d 301      15.575  36.278  57.492  0.00  0.00     0.104 H 
ATOM    113  H   BDP d 301      16.857  36.764  55.419  0.00  0.00     0.091 H 
ATOM    114  H   BDP d 301      18.027  35.861  57.231  0.00  0.00     0.133 H 
ATOM    115  H   BDP d 301      18.653  33.006  57.300  0.00  0.00     0.212 HD
ATOM    116  H   BDP d 301      15.058  34.336  55.260  0.00  0.00     0.092 H 
ATOM    117  H   BDP d 301      17.538  33.839  55.104  0.00  0.00     0.094 H 
ATOM    118  H   BDP d 301      19.226  36.114  55.312  0.00  0.00     0.210 HD
ATOM    119  H   BDP d 301      16.366  34.896  53.319  0.00  0.00     0.210 HD
ATOM    120  OSC ASG d 304      -1.062  39.066  54.293  0.00  0.00    -0.572 OA
ATOM    121  O3  ASG d 304       0.664  36.127  51.319  0.00  0.00    -0.348 OA
ATOM    122  C5  ASG d 304       2.743  39.269  51.458  0.00  0.00     0.090 C 
ATOM    123  C6  ASG d 304       2.503  40.731  51.744  0.00  0.00     0.043 C 
ATOM    124  O4  ASG d 304       0.886  38.547  52.846  0.00  0.00    -0.246 OA
ATOM    125  C7  ASG d 304       3.601  34.169  53.002  0.00  0.00     0.214 C 
ATOM    126  C8  ASG d 304       3.942  32.793  52.479  0.00  0.00    -0.003 C 
ATOM    127  S   ASG d 304      -0.603  39.119  52.920  0.00  0.00     0.252 S 
ATOM    128  OSB ASG d 304      -0.628  40.493  52.451  0.00  0.00    -0.572 OA
ATOM    129  N   ASG d 304       3.221  35.046  51.997  0.00  0.00    -0.349 N 
ATOM    130  C4  ASG d 304       1.454  38.418  51.534  0.00  0.00     0.114 C 
ATOM    131  C3  ASG d 304       1.821  36.946  51.252  0.00  0.00     0.094 C 
ATOM    132  C1  ASG d 304       4.068  37.377  52.187  0.00  0.00     0.154 C 
ATOM    133  O7  ASG d 304       3.660  34.463  54.185  0.00  0.00    -0.274 OA
ATOM    134  O6  ASG d 304       3.582  41.527  51.249  0.00  0.00    -0.398 OA
ATOM    135  O5  ASG d 304       3.727  38.776  52.415  0.00  0.00    -0.349 OA
ATOM    136  C2  ASG d 304       2.836  36.470  52.278  0.00  0.00     0.087 C 
ATOM    137  OSA ASG d 304      -1.475  38.316  52.079  0.00  0.00    -0.572 OA
ATOM    138  H   ASG d 304       3.100  39.179  50.453  0.00  0.00     0.090 H 
ATOM    139  H   ASG d 304       2.419  40.873  52.801  0.00  0.00     0.078 H 
ATOM    140  H   ASG d 304       1.601  41.033  51.256  0.00  0.00     0.078 H 
ATOM    141  H   ASG d 304       3.817  32.773  51.416  0.00  0.00     0.040 H 
ATOM    142  H   ASG d 304       3.294  32.069  52.927  0.00  0.00     0.040 H 
ATOM    143  H   ASG d 304       4.958  32.560  52.722  0.00  0.00     0.040 H 
ATOM    144  H   ASG d 304       3.203  34.723  51.067  0.00  0.00     0.163 HD
ATOM    145  H   ASG d 304       0.739  38.749  50.811  0.00  0.00     0.093 H 
ATOM    146  H   ASG d 304       2.238  36.876  50.270  0.00  0.00     0.091 H 
ATOM    147  H   ASG d 304       4.469  37.281  51.199  0.00  0.00     0.132 H 
ATOM    148  H   ASG d 304       4.407  41.261  51.686  0.00  0.00     0.209 HD
ATOM    149  H   ASG d 304       2.417  36.516  53.261  0.00  0.00     0.084 H 
ENDROOT
TORSDOF 38
ENDMDL
MODEL 18
REMARK VINA RESULT:      -7.0      8.675     14.897
REMARK  0 active torsions:
REMARK  status: ('A' for Active; 'I' for Inactive)
REMARK       I    between atoms: C6_2  and  C5_74 
REMARK       I    between atoms: C1_3  and  O4_24 
REMARK       I    between atoms: O6_4  and  C6_26 
REMARK       I    between atoms: C5_5  and  C6_12 
REMARK       I    between atoms: C4_6  and  O4_22 
REMARK       I    between atoms: C6_8  and  C5_90 
REMARK       I    between atoms: C6_8  and  O6_83 
REMARK       I    between atoms: O3_11  and  C3_60 
REMARK       I    between atoms: O3_11  and  C1_29 
REMARK       I    between atoms: C5_13  and  C6_18 
REMARK       I    between atoms: O4_14  and  C4_88 
REMARK       I    between atoms: O4_14  and  S_15 
REMARK       I    between atoms: C6_16  and  C5_28 
REMARK       I    between atoms: S_17  and  O4_22 
REMARK       I    between atoms: C6_18  and  O6_66 
REMARK       I    between atoms: O4_20  and  C4_46 
REMARK       I    between atoms: O4_20  and  C1_61 
REMARK       I    between atoms: O4_21  and  C4_54 
REMARK       I    between atoms: O4_21  and  S_40 
REMARK       I    between atoms: O4_24  and  C4_35 
REMARK       I    between atoms: O3_25  and  C3_48 
REMARK       I    between atoms: C6_26  and  C5_50 
REMARK       I    between atoms: C2_27  and  O2_55 
REMARK       I    between atoms: O3_31  and  C3_37 
REMARK       I    between atoms: C2_32  and  N_72 
REMARK       I    between atoms: C7_33  and  C8_39 
REMARK       I    between atoms: C7_33  and  N_52 
REMARK       I    between atoms: C1_34  and  O4_86 
REMARK       I    between atoms: C3_36  and  O3_87 
REMARK       I    between atoms: C2_47  and  O2_85 
REMARK       I    between atoms: N_52  and  C2_71 
REMARK       I    between atoms: C3_53  and  O3_81 
REMARK       I    between atoms: C1_56  and  O3_81 
REMARK       I    between atoms: C7_57  and  C8_64 
REMARK       I    between atoms: C7_57  and  N_63 
REMARK       I    between atoms: C8_58  and  C7_73 
REMARK       I    between atoms: C1_59  and  O1_68 
REMARK       I    between atoms: N_63  and  C2_67 
REMARK       I    between atoms: C4_69  and  O4_86 
REMARK       I    between atoms: N_72  and  C7_73 
REMARK       I    between atoms: C2_77  and  O2_82 
ROOT
ATOM      1  OSB ASG d 302       3.274  31.733  43.955  0.00  0.00    -0.572 OA
ATOM      2  O6  ASG d 302       5.362  34.398  41.153  0.00  0.00    -0.398 OA
ATOM      3  O4  ASG d 302       2.074  33.910  43.929  0.00  0.00    -0.246 OA
ATOM      4  S   ASG d 302       2.309  32.524  44.694  0.00  0.00     0.252 S 
ATOM      5  C6  ASG d 302       4.458  34.012  42.185  0.00  0.00     0.043 C 
ATOM      6  C2  ASG d 302       1.279  36.582  43.478  0.00  0.00     0.087 C 
ATOM      7  C1  ASG d 302       1.983  36.764  42.141  0.00  0.00     0.154 C 
ATOM      8  O5  ASG d 302       2.720  35.582  41.755  0.00  0.00    -0.349 OA
ATOM      9  C5  ASG d 302       3.727  35.213  42.726  0.00  0.00     0.090 C 
ATOM     10  O7  ASG d 302      -1.500  36.849  44.183  0.00  0.00    -0.274 OA
ATOM     11  C3  ASG d 302       2.338  36.250  44.514  0.00  0.00     0.094 C 
ATOM     12  C8  ASG d 302      -1.301  39.216  44.537  0.00  0.00    -0.003 C 
ATOM     13  OSA ASG d 302       2.807  32.769  46.035  0.00  0.00    -0.572 OA
ATOM     14  N   ASG d 302       0.566  37.839  43.853  0.00  0.00    -0.349 N 
ATOM     15  C7  ASG d 302      -0.788  37.841  44.179  0.00  0.00     0.214 C 
ATOM     16  OSC ASG d 302       1.057  31.806  44.769  0.00  0.00    -0.572 OA
ATOM     17  O3  ASG d 302       1.690  36.025  45.714  0.00  0.00    -0.348 OA
ATOM     18  C4  ASG d 302       3.052  34.956  44.089  0.00  0.00     0.114 C 
ATOM     19  H   ASG d 302       5.823  33.614  40.817  0.00  0.00     0.209 HD
ATOM     20  H   ASG d 302       5.007  33.548  42.977  0.00  0.00     0.078 H 
ATOM     21  H   ASG d 302       3.744  33.327  41.779  0.00  0.00     0.078 H 
ATOM     22  H   ASG d 302       0.556  35.795  43.420  0.00  0.00     0.084 H 
ATOM     23  H   ASG d 302       2.667  37.579  42.249  0.00  0.00     0.132 H 
ATOM     24  H   ASG d 302       4.440  35.994  42.888  0.00  0.00     0.090 H 
ATOM     25  H   ASG d 302       3.048  37.045  44.605  0.00  0.00     0.091 H 
ATOM     26  H   ASG d 302      -2.342  39.157  44.778  0.00  0.00     0.040 H 
ATOM     27  H   ASG d 302      -1.164  39.876  43.706  0.00  0.00     0.040 H 
ATOM     28  H   ASG d 302      -0.761  39.589  45.382  0.00  0.00     0.040 H 
ATOM     29  H   ASG d 302       1.065  38.687  43.871  0.00  0.00     0.163 HD
ATOM     30  H   ASG d 302       3.775  34.667  44.824  0.00  0.00     0.093 H 
ATOM     31  C6  BDP d 303       5.487  37.025  48.313  0.00  0.00     0.206 C 
ATOM     32  O4  BDP d 303       3.614  37.944  50.428  0.00  0.00    -0.348 OA
ATOM     33  O3  BDP d 303       0.869  37.275  50.246  0.00  0.00    -0.390 OA
ATOM     34  C3  BDP d 303       1.695  37.505  49.093  0.00  0.00     0.092 C 
ATOM     35  O6B BDP d 303       5.723  35.916  48.833  0.00  0.00    -0.646 OA
ATOM     36  C4  BDP d 303       3.152  37.133  49.402  0.00  0.00     0.103 C 
ATOM     37  C2  BDP d 303       1.213  36.623  47.958  0.00  0.00     0.110 C 
ATOM     38  O6A BDP d 303       6.283  37.905  47.913  0.00  0.00    -0.646 OA
ATOM     39  C1  BDP d 303       2.101  36.853  46.745  0.00  0.00     0.160 C 
ATOM     40  C5  BDP d 303       4.011  37.376  48.132  0.00  0.00     0.152 C 
ATOM     41  O5  BDP d 303       3.493  36.562  47.044  0.00  0.00    -0.340 OA
ATOM     42  O2  BDP d 303      -0.136  36.949  47.611  0.00  0.00    -0.388 OA
ATOM     43  H   BDP d 303      -0.048  37.514  50.039  0.00  0.00     0.210 HD
ATOM     44  H   BDP d 303       1.635  38.539  48.826  0.00  0.00     0.091 H 
ATOM     45  H   BDP d 303       3.217  36.105  49.694  0.00  0.00     0.092 H 
ATOM     46  H   BDP d 303       1.258  35.600  48.267  0.00  0.00     0.094 H 
ATOM     47  H   BDP d 303       2.018  37.881  46.464  0.00  0.00     0.133 H 
ATOM     48  H   BDP d 303       3.950  38.423  47.924  0.00  0.00     0.104 H 
ATOM     49  H   BDP d 303      -0.183  37.875  47.328  0.00  0.00     0.210 HD
ATOM     50  C1  ASG d 306      11.931  35.527  53.532  0.00  0.00     0.151 C 
ATOM     51  C4  ASG d 306      13.536  33.111  53.960  0.00  0.00     0.089 C 
ATOM     52  C6  ASG d 306      11.304  31.892  53.980  0.00  0.00     0.043 C 
ATOM     53  S   ASG d 306      14.429  32.092  56.152  0.00  0.00     0.252 S 
ATOM     54  O4  ASG d 306      13.539  33.161  55.388  0.00  0.00    -0.249 OA
ATOM     55  OSB ASG d 306      14.319  32.322  57.581  0.00  0.00    -0.572 OA
ATOM     56  OSA ASG d 306      13.948  30.758  55.839  0.00  0.00    -0.572 OA
ATOM     57  C3  ASG d 306      14.268  34.392  53.422  0.00  0.00    -0.014 C 
ATOM     58  C7  ASG d 306      14.068  38.029  54.335  0.00  0.00     0.214 C 
ATOM     59  N   ASG d 306      13.909  36.944  53.468  0.00  0.00    -0.352 N 
ATOM     60  C8  ASG d 306      14.616  39.250  53.640  0.00  0.00    -0.003 C 
ATOM     61  C2  ASG d 306      13.365  35.637  53.953  0.00  0.00     0.062 C 
ATOM     62  O5  ASG d 306      11.354  34.279  53.983  0.00  0.00    -0.349 OA
ATOM     63  O6  ASG d 306       9.928  31.961  53.613  0.00  0.00    -0.398 OA
ATOM     64  O7  ASG d 306      13.791  38.012  55.530  0.00  0.00    -0.274 OA
ATOM     65  OSC ASG d 306      15.809  32.220  55.739  0.00  0.00    -0.572 OA
ATOM     66  C5  ASG d 306      12.057  33.103  53.476  0.00  0.00     0.088 C 
ATOM     67  H   ASG d 306      11.871  35.545  52.464  0.00  0.00     0.132 H 
ATOM     68  H   ASG d 306      14.036  32.235  53.602  0.00  0.00     0.089 H 
ATOM     69  H   ASG d 306      11.381  31.850  55.048  0.00  0.00     0.078 H 
ATOM     70  H   ASG d 306      11.732  31.014  53.542  0.00  0.00     0.078 H 
ATOM     71  H   ASG d 306      14.307  34.384  52.353  0.00  0.00     0.040 H 
ATOM     72  H   ASG d 306      15.281  34.453  53.763  0.00  0.00     0.040 H 
ATOM     73  H   ASG d 306      14.159  37.041  52.521  0.00  0.00     0.163 HD
ATOM     74  H   ASG d 306      14.781  39.028  52.606  0.00  0.00     0.040 H 
ATOM     75  H   ASG d 306      15.542  39.535  54.096  0.00  0.00     0.040 H 
ATOM     76  H   ASG d 306      13.915  40.054  53.726  0.00  0.00     0.040 H 
ATOM     77  H   ASG d 306      13.409  35.596  55.022  0.00  0.00     0.080 H 
ATOM     78  H   ASG d 306       9.528  32.754  54.005  0.00  0.00     0.209 HD
ATOM     79  H   ASG d 306      12.087  33.094  52.406  0.00  0.00     0.090 H 
ATOM     80  C5  BDP d 305       9.619  38.235  53.322  0.00  0.00     0.152 C 
ATOM     81  O6B BDP d 305       9.491  37.586  51.069  0.00  0.00    -0.646 OA
ATOM     82  C6  BDP d 305      10.155  38.237  51.897  0.00  0.00     0.206 C 
ATOM     83  O4  BDP d 305      11.232  36.602  54.072  0.00  0.00    -0.348 OA
ATOM     84  O3  BDP d 305       9.554  35.797  56.221  0.00  0.00    -0.390 OA
ATOM     85  C2  BDP d 305       7.824  37.211  55.367  0.00  0.00     0.110 C 
ATOM     86  C1  BDP d 305       7.544  38.497  54.577  0.00  0.00     0.160 C 
ATOM     87  C4  BDP d 305       9.885  36.906  54.067  0.00  0.00     0.103 C 
ATOM     88  O6A BDP d 305      11.211  38.898  51.738  0.00  0.00    -0.646 OA
ATOM     89  C3  BDP d 305       9.321  37.008  55.497  0.00  0.00     0.092 C 
ATOM     90  O2  BDP d 305       7.204  37.324  56.651  0.00  0.00    -0.388 OA
ATOM     91  O5  BDP d 305       8.175  38.451  53.261  0.00  0.00    -0.340 OA
ATOM     92  H   BDP d 305      10.124  39.008  53.863  0.00  0.00     0.104 H 
ATOM     93  H   BDP d 305       9.191  35.882  57.117  0.00  0.00     0.210 HD
ATOM     94  H   BDP d 305       7.422  36.360  54.858  0.00  0.00     0.094 H 
ATOM     95  H   BDP d 305       7.951  39.317  55.131  0.00  0.00     0.133 H 
ATOM     96  H   BDP d 305       9.389  36.108  53.556  0.00  0.00     0.092 H 
ATOM     97  H   BDP d 305       9.795  37.811  56.020  0.00  0.00     0.091 H 
ATOM     98  H   BDP d 305       7.565  38.093  57.118  0.00  0.00     0.210 HD
ATOM     99  O6B BDP d 301       1.164  40.575  40.351  0.00  0.00    -0.646 OA
ATOM    100  C6  BDP d 301       0.257  39.740  40.561  0.00  0.00     0.206 C 
ATOM    101  O6A BDP d 301      -0.654  39.746  41.417  0.00  0.00    -0.646 OA
ATOM    102  O5  BDP d 301       0.347  39.003  38.269  0.00  0.00    -0.340 OA
ATOM    103  C5  BDP d 301       0.255  38.533  39.632  0.00  0.00     0.152 C 
ATOM    104  C3  BDP d 301       1.299  36.376  38.896  0.00  0.00     0.092 C 
ATOM    105  C1  BDP d 301       0.338  37.922  37.287  0.00  0.00     0.156 C 
ATOM    106  O1  BDP d 301       0.392  38.571  35.926  0.00  0.00    -0.368 OA
ATOM    107  C4  BDP d 301       1.371  37.530  39.927  0.00  0.00     0.103 C 
ATOM    108  C2  BDP d 301       1.466  36.954  37.498  0.00  0.00     0.110 C 
ATOM    109  O2  BDP d 301       1.381  35.938  36.502  0.00  0.00    -0.388 OA
ATOM    110  O4  BDP d 301       1.054  37.018  41.171  0.00  0.00    -0.348 OA
ATOM    111  O3  BDP d 301       2.349  35.438  39.139  0.00  0.00    -0.390 OA
ATOM    112  H   BDP d 301      -0.659  38.000  39.795  0.00  0.00     0.104 H 
ATOM    113  H   BDP d 301       0.354  35.881  38.984  0.00  0.00     0.091 H 
ATOM    114  H   BDP d 301      -0.549  37.332  37.388  0.00  0.00     0.133 H 
ATOM    115  H   BDP d 301       1.201  39.101  35.852  0.00  0.00     0.212 HD
ATOM    116  H   BDP d 301       2.343  37.975  39.887  0.00  0.00     0.092 H 
ATOM    117  H   BDP d 301       2.425  37.422  37.416  0.00  0.00     0.094 H 
ATOM    118  H   BDP d 301       0.518  35.500  36.560  0.00  0.00     0.210 HD
ATOM    119  H   BDP d 301       3.206  35.886  39.060  0.00  0.00     0.210 HD
ATOM    120  OSC ASG d 304       2.273  39.233  56.668  0.00  0.00    -0.572 OA
ATOM    121  O3  ASG d 304       6.153  38.673  54.411  0.00  0.00    -0.348 OA
ATOM    122  C5  ASG d 304       3.665  35.997  53.481  0.00  0.00     0.090 C 
ATOM    123  C6  ASG d 304       2.521  35.281  54.156  0.00  0.00     0.043 C 
ATOM    124  O4  ASG d 304       3.395  37.999  54.831  0.00  0.00    -0.246 OA
ATOM    125  C7  ASG d 304       5.785  40.190  50.825  0.00  0.00     0.214 C 
ATOM    126  C8  ASG d 304       7.033  40.657  50.110  0.00  0.00    -0.003 C 
ATOM    127  S   ASG d 304       3.179  38.133  56.407  0.00  0.00     0.252 S 
ATOM    128  OSB ASG d 304       2.616  36.903  56.935  0.00  0.00    -0.572 OA
ATOM    129  N   ASG d 304       5.998  39.047  51.582  0.00  0.00    -0.349 N 
ATOM    130  C4  ASG d 304       4.361  37.027  54.401  0.00  0.00     0.114 C 
ATOM    131  C3  ASG d 304       5.490  37.713  53.604  0.00  0.00     0.094 C 
ATOM    132  C1  ASG d 304       4.190  37.340  51.535  0.00  0.00     0.154 C 
ATOM    133  O7  ASG d 304       4.713  40.766  50.736  0.00  0.00    -0.274 OA
ATOM    134  O6  ASG d 304       2.199  34.075  53.462  0.00  0.00    -0.398 OA
ATOM    135  O5  ASG d 304       3.145  36.660  52.290  0.00  0.00    -0.349 OA
ATOM    136  C2  ASG d 304       4.904  38.399  52.381  0.00  0.00     0.087 C 
ATOM    137  OSA ASG d 304       4.456  38.385  57.054  0.00  0.00    -0.572 OA
ATOM    138  H   ASG d 304       4.410  35.273  53.229  0.00  0.00     0.090 H 
ATOM    139  H   ASG d 304       1.663  35.920  54.165  0.00  0.00     0.078 H 
ATOM    140  H   ASG d 304       2.811  35.036  55.156  0.00  0.00     0.078 H 
ATOM    141  H   ASG d 304       7.844  39.998  50.339  0.00  0.00     0.040 H 
ATOM    142  H   ASG d 304       7.277  41.648  50.430  0.00  0.00     0.040 H 
ATOM    143  H   ASG d 304       6.860  40.657  49.054  0.00  0.00     0.040 H 
ATOM    144  H   ASG d 304       6.897  38.647  51.595  0.00  0.00     0.163 HD
ATOM    145  H   ASG d 304       4.777  36.546  55.261  0.00  0.00     0.093 H 
ATOM    146  H   ASG d 304       6.197  36.970  53.298  0.00  0.00     0.091 H 
ATOM    147  H   ASG d 304       4.920  36.617  51.237  0.00  0.00     0.132 H 
ATOM    148  H   ASG d 304       1.934  34.286  52.553  0.00  0.00     0.209 HD
ATOM    149  H   ASG d 304       4.213  39.159  52.679  0.00  0.00     0.084 H 
ENDROOT
TORSDOF 38
ENDMDL
MODEL 19
REMARK VINA RESULT:      -7.0      5.104      8.590
REMARK  0 active torsions:
REMARK  status: ('A' for Active; 'I' for Inactive)
REMARK       I    between atoms: C6_2  and  C5_74 
REMARK       I    between atoms: C1_3  and  O4_24 
REMARK       I    between atoms: O6_4  and  C6_26 
REMARK       I    between atoms: C5_5  and  C6_12 
REMARK       I    between atoms: C4_6  and  O4_22 
REMARK       I    between atoms: C6_8  and  C5_90 
REMARK       I    between atoms: C6_8  and  O6_83 
REMARK       I    between atoms: O3_11  and  C3_60 
REMARK       I    between atoms: O3_11  and  C1_29 
REMARK       I    between atoms: C5_13  and  C6_18 
REMARK       I    between atoms: O4_14  and  C4_88 
REMARK       I    between atoms: O4_14  and  S_15 
REMARK       I    between atoms: C6_16  and  C5_28 
REMARK       I    between atoms: S_17  and  O4_22 
REMARK       I    between atoms: C6_18  and  O6_66 
REMARK       I    between atoms: O4_20  and  C4_46 
REMARK       I    between atoms: O4_20  and  C1_61 
REMARK       I    between atoms: O4_21  and  C4_54 
REMARK       I    between atoms: O4_21  and  S_40 
REMARK       I    between atoms: O4_24  and  C4_35 
REMARK       I    between atoms: O3_25  and  C3_48 
REMARK       I    between atoms: C6_26  and  C5_50 
REMARK       I    between atoms: C2_27  and  O2_55 
REMARK       I    between atoms: O3_31  and  C3_37 
REMARK       I    between atoms: C2_32  and  N_72 
REMARK       I    between atoms: C7_33  and  C8_39 
REMARK       I    between atoms: C7_33  and  N_52 
REMARK       I    between atoms: C1_34  and  O4_86 
REMARK       I    between atoms: C3_36  and  O3_87 
REMARK       I    between atoms: C2_47  and  O2_85 
REMARK       I    between atoms: N_52  and  C2_71 
REMARK       I    between atoms: C3_53  and  O3_81 
REMARK       I    between atoms: C1_56  and  O3_81 
REMARK       I    between atoms: C7_57  and  C8_64 
REMARK       I    between atoms: C7_57  and  N_63 
REMARK       I    between atoms: C8_58  and  C7_73 
REMARK       I    between atoms: C1_59  and  O1_68 
REMARK       I    between atoms: N_63  and  C2_67 
REMARK       I    between atoms: C4_69  and  O4_86 
REMARK       I    between atoms: N_72  and  C7_73 
REMARK       I    between atoms: C2_77  and  O2_82 
ROOT
ATOM      1  OSB ASG d 302      19.732  36.316  48.080  0.00  0.00    -0.572 OA
ATOM      2  O6  ASG d 302      20.373  32.017  48.725  0.00  0.00    -0.398 OA
ATOM      3  O4  ASG d 302      19.443  35.853  50.506  0.00  0.00    -0.246 OA
ATOM      4  S   ASG d 302      19.192  36.879  49.303  0.00  0.00     0.252 S 
ATOM      5  C6  ASG d 302      19.978  33.353  49.023  0.00  0.00     0.043 C 
ATOM      6  C2  ASG d 302      19.187  34.631  53.038  0.00  0.00     0.087 C 
ATOM      7  C1  ASG d 302      19.991  33.378  52.725  0.00  0.00     0.154 C 
ATOM      8  O5  ASG d 302      20.456  33.365  51.356  0.00  0.00    -0.349 OA
ATOM      9  C5  ASG d 302      19.372  33.432  50.400  0.00  0.00     0.090 C 
ATOM     10  O7  ASG d 302      19.559  36.635  55.072  0.00  0.00    -0.274 OA
ATOM     11  C3  ASG d 302      18.014  34.678  52.075  0.00  0.00     0.094 C 
ATOM     12  C8  ASG d 302      18.341  35.365  56.708  0.00  0.00    -0.003 C 
ATOM     13  OSA ASG d 302      17.770  37.122  49.140  0.00  0.00    -0.572 OA
ATOM     14  N   ASG d 302      18.695  34.580  54.448  0.00  0.00    -0.349 N 
ATOM     15  C7  ASG d 302      18.937  35.619  55.343  0.00  0.00     0.214 C 
ATOM     16  OSC ASG d 302      19.863  38.125  49.595  0.00  0.00    -0.572 OA
ATOM     17  O3  ASG d 302      17.319  35.847  52.322  0.00  0.00    -0.348 OA
ATOM     18  C4  ASG d 302      18.560  34.722  50.638  0.00  0.00     0.114 C 
ATOM     19  H   ASG d 302      20.761  31.985  47.837  0.00  0.00     0.209 HD
ATOM     20  H   ASG d 302      19.256  33.675  48.302  0.00  0.00     0.078 H 
ATOM     21  H   ASG d 302      20.842  33.984  48.989  0.00  0.00     0.078 H 
ATOM     22  H   ASG d 302      19.793  35.506  52.929  0.00  0.00     0.084 H 
ATOM     23  H   ASG d 302      19.348  32.537  52.880  0.00  0.00     0.132 H 
ATOM     24  H   ASG d 302      18.683  32.621  50.510  0.00  0.00     0.090 H 
ATOM     25  H   ASG d 302      17.382  33.823  52.198  0.00  0.00     0.091 H 
ATOM     26  H   ASG d 302      18.557  36.193  57.350  0.00  0.00     0.040 H 
ATOM     27  H   ASG d 302      18.763  34.473  57.121  0.00  0.00     0.040 H 
ATOM     28  H   ASG d 302      17.282  35.251  56.619  0.00  0.00     0.040 H 
ATOM     29  H   ASG d 302      18.188  33.793  54.752  0.00  0.00     0.163 HD
ATOM     30  H   ASG d 302      17.759  34.804  49.934  0.00  0.00     0.093 H 
ATOM     31  C6  BDP d 303      13.291  34.205  50.521  0.00  0.00     0.206 C 
ATOM     32  O4  BDP d 303      11.881  35.998  52.425  0.00  0.00    -0.348 OA
ATOM     33  O3  BDP d 303      13.328  38.042  53.747  0.00  0.00    -0.390 OA
ATOM     34  C3  BDP d 303      13.912  36.780  53.385  0.00  0.00     0.092 C 
ATOM     35  O6B BDP d 303      13.150  34.947  49.528  0.00  0.00    -0.646 OA
ATOM     36  C4  BDP d 303      13.221  36.214  52.137  0.00  0.00     0.103 C 
ATOM     37  C2  BDP d 303      15.378  36.990  53.058  0.00  0.00     0.110 C 
ATOM     38  O6A BDP d 303      13.014  32.991  50.658  0.00  0.00    -0.646 OA
ATOM     39  C1  BDP d 303      15.989  35.658  52.656  0.00  0.00     0.160 C 
ATOM     40  C5  BDP d 303      13.887  34.862  51.764  0.00  0.00     0.152 C 
ATOM     41  O5  BDP d 303      15.303  35.082  51.512  0.00  0.00    -0.340 OA
ATOM     42  O2  BDP d 303      16.077  37.493  54.201  0.00  0.00    -0.388 OA
ATOM     43  H   BDP d 303      13.772  38.389  54.536  0.00  0.00     0.210 HD
ATOM     44  H   BDP d 303      13.797  36.099  54.202  0.00  0.00     0.091 H 
ATOM     45  H   BDP d 303      13.311  36.900  51.321  0.00  0.00     0.092 H 
ATOM     46  H   BDP d 303      15.459  37.697  52.259  0.00  0.00     0.094 H 
ATOM     47  H   BDP d 303      15.896  34.988  53.485  0.00  0.00     0.133 H 
ATOM     48  H   BDP d 303      13.717  34.206  52.592  0.00  0.00     0.104 H 
ATOM     49  H   BDP d 303      16.008  36.856  54.929  0.00  0.00     0.210 HD
ATOM     50  C1  ASG d 306       6.896  33.631  45.063  0.00  0.00     0.151 C 
ATOM     51  C4  ASG d 306       6.770  34.178  42.186  0.00  0.00     0.089 C 
ATOM     52  C6  ASG d 306       8.042  36.306  42.752  0.00  0.00     0.043 C 
ATOM     53  S   ASG d 306       4.919  35.320  40.804  0.00  0.00     0.252 S 
ATOM     54  O4  ASG d 306       5.534  34.894  42.204  0.00  0.00    -0.249 OA
ATOM     55  OSB ASG d 306       3.661  36.008  41.032  0.00  0.00    -0.572 OA
ATOM     56  OSA ASG d 306       5.843  36.214  40.128  0.00  0.00    -0.572 OA
ATOM     57  C3  ASG d 306       6.493  32.708  42.666  0.00  0.00    -0.014 C 
ATOM     58  C7  ASG d 306       4.504  31.275  45.509  0.00  0.00     0.214 C 
ATOM     59  N   ASG d 306       5.688  31.532  44.814  0.00  0.00    -0.352 N 
ATOM     60  C8  ASG d 306       4.453  29.875  46.069  0.00  0.00    -0.003 C 
ATOM     61  C2  ASG d 306       5.947  32.868  44.190  0.00  0.00     0.062 C 
ATOM     62  O5  ASG d 306       7.175  34.937  44.507  0.00  0.00    -0.349 OA
ATOM     63  O6  ASG d 306       8.860  36.959  43.722  0.00  0.00    -0.398 OA
ATOM     64  O7  ASG d 306       3.597  32.087  45.666  0.00  0.00    -0.274 OA
ATOM     65  OSC ASG d 306       4.696  34.146  39.990  0.00  0.00    -0.572 OA
ATOM     66  C5  ASG d 306       7.754  34.879  43.167  0.00  0.00     0.088 C 
ATOM     67  H   ASG d 306       7.823  33.101  45.130  0.00  0.00     0.132 H 
ATOM     68  H   ASG d 306       7.194  34.161  41.203  0.00  0.00     0.089 H 
ATOM     69  H   ASG d 306       7.118  36.837  42.657  0.00  0.00     0.078 H 
ATOM     70  H   ASG d 306       8.562  36.293  41.817  0.00  0.00     0.078 H 
ATOM     71  H   ASG d 306       7.393  32.129  42.647  0.00  0.00     0.040 H 
ATOM     72  H   ASG d 306       5.793  32.201  42.036  0.00  0.00     0.040 H 
ATOM     73  H   ASG d 306       6.365  30.822  44.733  0.00  0.00     0.163 HD
ATOM     74  H   ASG d 306       5.350  29.354  45.806  0.00  0.00     0.040 H 
ATOM     75  H   ASG d 306       3.608  29.359  45.663  0.00  0.00     0.040 H 
ATOM     76  H   ASG d 306       4.365  29.920  47.134  0.00  0.00     0.040 H 
ATOM     77  H   ASG d 306       5.033  33.422  44.117  0.00  0.00     0.080 H 
ATOM     78  H   ASG d 306       8.399  36.977  44.575  0.00  0.00     0.209 HD
ATOM     79  H   ASG d 306       8.658  34.306  43.153  0.00  0.00     0.090 H 
ATOM     80  C5  BDP d 305       7.004  33.489  48.626  0.00  0.00     0.152 C 
ATOM     81  O6B BDP d 305       9.204  32.758  48.253  0.00  0.00    -0.646 OA
ATOM     82  C6  BDP d 305       8.012  32.399  48.290  0.00  0.00     0.206 C 
ATOM     83  O4  BDP d 305       6.323  33.760  46.325  0.00  0.00    -0.348 OA
ATOM     84  O3  BDP d 305       5.421  36.412  46.809  0.00  0.00    -0.390 OA
ATOM     85  C2  BDP d 305       6.313  36.285  49.024  0.00  0.00     0.110 C 
ATOM     86  C1  BDP d 305       6.638  35.330  50.183  0.00  0.00     0.160 C 
ATOM     87  C4  BDP d 305       6.738  34.452  47.446  0.00  0.00     0.103 C 
ATOM     88  O6A BDP d 305       7.508  31.267  48.086  0.00  0.00    -0.646 OA
ATOM     89  C3  BDP d 305       5.699  35.504  47.878  0.00  0.00     0.092 C 
ATOM     90  O2  BDP d 305       5.416  37.290  49.504  0.00  0.00    -0.388 OA
ATOM     91  O5  BDP d 305       7.534  34.264  49.745  0.00  0.00    -0.340 OA
ATOM     92  H   BDP d 305       6.075  33.013  48.863  0.00  0.00     0.104 H 
ATOM     93  H   BDP d 305       4.766  37.065  47.102  0.00  0.00     0.210 HD
ATOM     94  H   BDP d 305       7.202  36.754  48.661  0.00  0.00     0.094 H 
ATOM     95  H   BDP d 305       5.719  34.899  50.520  0.00  0.00     0.133 H 
ATOM     96  H   BDP d 305       7.646  34.951  47.183  0.00  0.00     0.092 H 
ATOM     97  H   BDP d 305       4.786  35.023  48.160  0.00  0.00     0.091 H 
ATOM     98  H   BDP d 305       4.607  36.871  49.835  0.00  0.00     0.210 HD
ATOM     99  O6B BDP d 301      20.482  30.832  56.142  0.00  0.00    -0.646 OA
ATOM    100  C6  BDP d 301      20.948  31.993  56.116  0.00  0.00     0.206 C 
ATOM    101  O6A BDP d 301      20.566  33.023  56.714  0.00  0.00    -0.646 OA
ATOM    102  O5  BDP d 301      23.128  31.151  55.533  0.00  0.00    -0.340 OA
ATOM    103  C5  BDP d 301      22.168  32.186  55.225  0.00  0.00     0.152 C 
ATOM    104  C3  BDP d 301      23.159  32.339  52.928  0.00  0.00     0.092 C 
ATOM    105  C1  BDP d 301      24.351  31.250  54.741  0.00  0.00     0.156 C 
ATOM    106  O1  BDP d 301      25.261  30.140  55.209  0.00  0.00    -0.368 OA
ATOM    107  C4  BDP d 301      21.843  32.185  53.731  0.00  0.00     0.103 C 
ATOM    108  C2  BDP d 301      24.081  31.178  53.267  0.00  0.00     0.110 C 
ATOM    109  O2  BDP d 301      25.323  31.281  52.574  0.00  0.00    -0.388 OA
ATOM    110  O4  BDP d 301      21.085  33.325  53.542  0.00  0.00    -0.348 OA
ATOM    111  O3  BDP d 301      22.880  32.317  51.527  0.00  0.00    -0.390 OA
ATOM    112  H   BDP d 301      22.569  33.156  55.430  0.00  0.00     0.104 H 
ATOM    113  H   BDP d 301      23.622  33.270  53.182  0.00  0.00     0.091 H 
ATOM    114  H   BDP d 301      24.816  32.203  54.887  0.00  0.00     0.133 H 
ATOM    115  H   BDP d 301      24.826  29.285  55.070  0.00  0.00     0.212 HD
ATOM    116  H   BDP d 301      21.346  31.290  53.420  0.00  0.00     0.092 H 
ATOM    117  H   BDP d 301      23.617  30.256  52.982  0.00  0.00     0.094 H 
ATOM    118  H   BDP d 301      25.761  32.112  52.818  0.00  0.00     0.210 HD
ATOM    119  H   BDP d 301      22.459  31.474  51.294  0.00  0.00     0.210 HD
ATOM    120  OSC ASG d 304       6.620  39.398  54.202  0.00  0.00    -0.572 OA
ATOM    121  O3  ASG d 304       7.252  36.039  51.239  0.00  0.00    -0.348 OA
ATOM    122  C5  ASG d 304       9.948  38.652  50.897  0.00  0.00     0.090 C 
ATOM    123  C6  ASG d 304      10.066  40.141  51.111  0.00  0.00     0.043 C 
ATOM    124  O4  ASG d 304       8.192  38.409  52.557  0.00  0.00    -0.246 OA
ATOM    125  C7  ASG d 304       9.913  33.551  52.662  0.00  0.00     0.214 C 
ATOM    126  C8  ASG d 304       9.878  32.114  52.193  0.00  0.00    -0.003 C 
ATOM    127  S   ASG d 304       6.884  39.295  52.781  0.00  0.00     0.252 S 
ATOM    128  OSB ASG d 304       7.086  40.622  52.227  0.00  0.00    -0.572 OA
ATOM    129  N   ASG d 304       9.591  34.451  51.656  0.00  0.00    -0.349 N 
ATOM    130  C4  ASG d 304       8.532  38.107  51.195  0.00  0.00     0.114 C 
ATOM    131  C3  ASG d 304       8.535  36.581  50.969  0.00  0.00     0.094 C 
ATOM    132  C1  ASG d 304      10.931  36.545  51.578  0.00  0.00     0.154 C 
ATOM    133  O7  ASG d 304      10.197  33.871  53.805  0.00  0.00    -0.274 OA
ATOM    134  O6  ASG d 304      11.209  40.661  50.430  0.00  0.00    -0.398 OA
ATOM    135  O5  ASG d 304      10.929  37.992  51.752  0.00  0.00    -0.349 OA
ATOM    136  C2  ASG d 304       9.560  35.934  51.886  0.00  0.00     0.087 C 
ATOM    137  OSA ASG d 304       5.753  38.672  52.115  0.00  0.00    -0.572 OA
ATOM    138  H   ASG d 304      10.134  38.447  49.864  0.00  0.00     0.090 H 
ATOM    139  H   ASG d 304      10.162  40.339  52.158  0.00  0.00     0.078 H 
ATOM    140  H   ASG d 304       9.189  40.615  50.723  0.00  0.00     0.078 H 
ATOM    141  H   ASG d 304       9.605  32.082  51.159  0.00  0.00     0.040 H 
ATOM    142  H   ASG d 304       9.160  31.569  52.769  0.00  0.00     0.040 H 
ATOM    143  H   ASG d 304      10.845  31.674  52.320  0.00  0.00     0.040 H 
ATOM    144  H   ASG d 304       9.376  34.104  50.760  0.00  0.00     0.163 HD
ATOM    145  H   ASG d 304       7.809  38.560  50.548  0.00  0.00     0.093 H 
ATOM    146  H   ASG d 304       8.787  36.384  49.948  0.00  0.00     0.091 H 
ATOM    147  H   ASG d 304      11.161  36.325  50.555  0.00  0.00     0.132 H 
ATOM    148  H   ASG d 304      12.011  40.238  50.775  0.00  0.00     0.209 HD
ATOM    149  H   ASG d 304       9.302  36.109  52.910  0.00  0.00     0.084 H 
ENDROOT
TORSDOF 38
ENDMDL
MODEL 20
REMARK VINA RESULT:      -7.0      6.328     12.802
REMARK  0 active torsions:
REMARK  status: ('A' for Active; 'I' for Inactive)
REMARK       I    between atoms: C6_2  and  C5_74 
REMARK       I    between atoms: C1_3  and  O4_24 
REMARK       I    between atoms: O6_4  and  C6_26 
REMARK       I    between atoms: C5_5  and  C6_12 
REMARK       I    between atoms: C4_6  and  O4_22 
REMARK       I    between atoms: C6_8  and  C5_90 
REMARK       I    between atoms: C6_8  and  O6_83 
REMARK       I    between atoms: O3_11  and  C3_60 
REMARK       I    between atoms: O3_11  and  C1_29 
REMARK       I    between atoms: C5_13  and  C6_18 
REMARK       I    between atoms: O4_14  and  C4_88 
REMARK       I    between atoms: O4_14  and  S_15 
REMARK       I    between atoms: C6_16  and  C5_28 
REMARK       I    between atoms: S_17  and  O4_22 
REMARK       I    between atoms: C6_18  and  O6_66 
REMARK       I    between atoms: O4_20  and  C4_46 
REMARK       I    between atoms: O4_20  and  C1_61 
REMARK       I    between atoms: O4_21  and  C4_54 
REMARK       I    between atoms: O4_21  and  S_40 
REMARK       I    between atoms: O4_24  and  C4_35 
REMARK       I    between atoms: O3_25  and  C3_48 
REMARK       I    between atoms: C6_26  and  C5_50 
REMARK       I    between atoms: C2_27  and  O2_55 
REMARK       I    between atoms: O3_31  and  C3_37 
REMARK       I    between atoms: C2_32  and  N_72 
REMARK       I    between atoms: C7_33  and  C8_39 
REMARK       I    between atoms: C7_33  and  N_52 
REMARK       I    between atoms: C1_34  and  O4_86 
REMARK       I    between atoms: C3_36  and  O3_87 
REMARK       I    between atoms: C2_47  and  O2_85 
REMARK       I    between atoms: N_52  and  C2_71 
REMARK       I    between atoms: C3_53  and  O3_81 
REMARK       I    between atoms: C1_56  and  O3_81 
REMARK       I    between atoms: C7_57  and  C8_64 
REMARK       I    between atoms: C7_57  and  N_63 
REMARK       I    between atoms: C8_58  and  C7_73 
REMARK       I    between atoms: C1_59  and  O1_68 
REMARK       I    between atoms: N_63  and  C2_67 
REMARK       I    between atoms: C4_69  and  O4_86 
REMARK       I    between atoms: N_72  and  C7_73 
REMARK       I    between atoms: C2_77  and  O2_82 
ROOT
ATOM      1  OSB ASG d 302      13.041  33.984  50.340  0.00  0.00    -0.572 OA
ATOM      2  O6  ASG d 302      15.741  37.221  51.581  0.00  0.00    -0.398 OA
ATOM      3  O4  ASG d 302      15.372  33.261  49.869  0.00  0.00    -0.246 OA
ATOM      4  S   ASG d 302      13.815  33.015  49.589  0.00  0.00     0.252 S 
ATOM      5  C6  ASG d 302      15.331  36.012  50.950  0.00  0.00     0.043 C 
ATOM      6  C2  ASG d 302      18.173  33.128  49.538  0.00  0.00     0.087 C 
ATOM      7  C1  ASG d 302      18.534  34.196  50.560  0.00  0.00     0.154 C 
ATOM      8  O5  ASG d 302      17.359  34.781  51.166  0.00  0.00    -0.349 OA
ATOM      9  C5  ASG d 302      16.479  35.393  50.194  0.00  0.00     0.090 C 
ATOM     10  O7  ASG d 302      18.952  30.361  49.366  0.00  0.00    -0.274 OA
ATOM     11  C3  ASG d 302      17.295  33.777  48.483  0.00  0.00     0.094 C 
ATOM     12  C8  ASG d 302      20.982  30.886  48.196  0.00  0.00    -0.003 C 
ATOM     13  OSA ASG d 302      13.531  33.158  48.173  0.00  0.00    -0.572 OA
ATOM     14  N   ASG d 302      19.414  32.582  48.912  0.00  0.00    -0.349 N 
ATOM     15  C7  ASG d 302      19.680  31.216  48.888  0.00  0.00     0.214 C 
ATOM     16  OSC ASG d 302      13.461  31.682  50.019  0.00  0.00    -0.572 OA
ATOM     17  O3  ASG d 302      16.920  32.793  47.589  0.00  0.00    -0.348 OA
ATOM     18  C4  ASG d 302      16.034  34.331  49.167  0.00  0.00     0.114 C 
ATOM     19  H   ASG d 302      14.992  37.605  52.062  0.00  0.00     0.209 HD
ATOM     20  H   ASG d 302      14.535  36.223  50.268  0.00  0.00     0.078 H 
ATOM     21  H   ASG d 302      15.003  35.324  51.701  0.00  0.00     0.078 H 
ATOM     22  H   ASG d 302      17.654  32.318  50.006  0.00  0.00     0.084 H 
ATOM     23  H   ASG d 302      19.076  34.961  50.045  0.00  0.00     0.132 H 
ATOM     24  H   ASG d 302      16.966  36.164  49.634  0.00  0.00     0.090 H 
ATOM     25  H   ASG d 302      17.816  34.568  47.985  0.00  0.00     0.091 H 
ATOM     26  H   ASG d 302      21.133  29.827  48.208  0.00  0.00     0.040 H 
ATOM     27  H   ASG d 302      21.790  31.367  48.708  0.00  0.00     0.040 H 
ATOM     28  H   ASG d 302      20.946  31.229  47.184  0.00  0.00     0.040 H 
ATOM     29  H   ASG d 302      20.061  33.204  48.506  0.00  0.00     0.163 HD
ATOM     30  H   ASG d 302      15.370  34.756  48.443  0.00  0.00     0.093 H 
ATOM     31  C6  BDP d 303      16.108  35.836  44.090  0.00  0.00     0.206 C 
ATOM     32  O4  BDP d 303      16.850  33.652  42.217  0.00  0.00    -0.348 OA
ATOM     33  O3  BDP d 303      17.007  30.991  43.171  0.00  0.00    -0.390 OA
ATOM     34  C3  BDP d 303      17.328  32.132  43.983  0.00  0.00     0.092 C 
ATOM     35  O6B BDP d 303      14.875  35.709  43.941  0.00  0.00    -0.646 OA
ATOM     36  C4  BDP d 303      16.514  33.352  43.529  0.00  0.00     0.103 C 
ATOM     37  C2  BDP d 303      16.962  31.831  45.424  0.00  0.00     0.110 C 
ATOM     38  O6A BDP d 303      16.824  36.859  43.996  0.00  0.00    -0.646 OA
ATOM     39  C1  BDP d 303      17.283  33.046  46.278  0.00  0.00     0.160 C 
ATOM     40  C5  BDP d 303      16.871  34.559  44.437  0.00  0.00     0.152 C 
ATOM     41  O5  BDP d 303      16.564  34.222  45.819  0.00  0.00    -0.340 OA
ATOM     42  O2  BDP d 303      17.716  30.714  45.907  0.00  0.00    -0.388 OA
ATOM     43  H   BDP d 303      17.527  30.227  43.467  0.00  0.00     0.210 HD
ATOM     44  H   BDP d 303      18.373  32.340  43.890  0.00  0.00     0.091 H 
ATOM     45  H   BDP d 303      15.466  33.143  43.597  0.00  0.00     0.092 H 
ATOM     46  H   BDP d 303      15.919  31.599  45.478  0.00  0.00     0.094 H 
ATOM     47  H   BDP d 303      18.333  33.235  46.204  0.00  0.00     0.133 H 
ATOM     48  H   BDP d 303      17.912  34.751  44.285  0.00  0.00     0.104 H 
ATOM     49  H   BDP d 303      18.663  30.919  45.861  0.00  0.00     0.210 HD
ATOM     50  C1  ASG d 306      11.555  40.189  38.492  0.00  0.00     0.151 C 
ATOM     51  C4  ASG d 306       8.783  41.139  38.592  0.00  0.00     0.089 C 
ATOM     52  C6  ASG d 306       8.240  38.805  39.443  0.00  0.00     0.043 C 
ATOM     53  S   ASG d 306       6.988  41.185  36.744  0.00  0.00     0.252 S 
ATOM     54  O4  ASG d 306       8.425  40.754  37.264  0.00  0.00    -0.249 OA
ATOM     55  OSB ASG d 306       6.825  40.728  35.375  0.00  0.00    -0.572 OA
ATOM     56  OSA ASG d 306       5.973  40.573  37.582  0.00  0.00    -0.572 OA
ATOM     57  C3  ASG d 306       9.924  42.214  38.502  0.00  0.00    -0.014 C 
ATOM     58  C7  ASG d 306      13.073  42.441  36.470  0.00  0.00     0.214 C 
ATOM     59  N   ASG d 306      12.360  42.332  37.666  0.00  0.00    -0.352 N 
ATOM     60  C8  ASG d 306      14.252  43.376  36.581  0.00  0.00    -0.003 C 
ATOM     61  C2  ASG d 306      11.160  41.444  37.776  0.00  0.00     0.062 C 
ATOM     62  O5  ASG d 306      10.428  39.290  38.620  0.00  0.00    -0.349 OA
ATOM     63  O6  ASG d 306       8.770  37.621  40.037  0.00  0.00    -0.398 OA
ATOM     64  O7  ASG d 306      12.793  41.845  35.434  0.00  0.00    -0.274 OA
ATOM     65  OSC ASG d 306       6.860  42.625  36.799  0.00  0.00    -0.572 OA
ATOM     66  C5  ASG d 306       9.302  39.877  39.341  0.00  0.00     0.088 C 
ATOM     67  H   ASG d 306      11.889  40.432  39.479  0.00  0.00     0.132 H 
ATOM     68  H   ASG d 306       7.944  41.548  39.117  0.00  0.00     0.089 H 
ATOM     69  H   ASG d 306       7.879  38.574  38.462  0.00  0.00     0.078 H 
ATOM     70  H   ASG d 306       7.442  39.168  40.056  0.00  0.00     0.078 H 
ATOM     71  H   ASG d 306      10.209  42.546  39.478  0.00  0.00     0.040 H 
ATOM     72  H   ASG d 306       9.617  43.086  37.962  0.00  0.00     0.040 H 
ATOM     73  H   ASG d 306      12.651  42.849  38.452  0.00  0.00     0.163 HD
ATOM     74  H   ASG d 306      14.296  43.777  37.572  0.00  0.00     0.040 H 
ATOM     75  H   ASG d 306      14.142  44.174  35.878  0.00  0.00     0.040 H 
ATOM     76  H   ASG d 306      15.154  42.838  36.373  0.00  0.00     0.040 H 
ATOM     77  H   ASG d 306      10.808  41.181  36.799  0.00  0.00     0.080 H 
ATOM     78  H   ASG d 306       9.495  37.281  39.490  0.00  0.00     0.209 HD
ATOM     79  H   ASG d 306       9.588  40.200  40.321  0.00  0.00     0.090 H 
ATOM     80  C5  BDP d 305      14.720  38.565  38.237  0.00  0.00     0.152 C 
ATOM     81  O6B BDP d 305      14.793  38.949  40.552  0.00  0.00    -0.646 OA
ATOM     82  C6  BDP d 305      14.984  39.466  39.435  0.00  0.00     0.206 C 
ATOM     83  O4  BDP d 305      12.578  39.577  37.774  0.00  0.00    -0.348 OA
ATOM     84  O3  BDP d 305      11.670  37.251  36.416  0.00  0.00    -0.390 OA
ATOM     85  C2  BDP d 305      13.670  36.117  37.073  0.00  0.00     0.110 C 
ATOM     86  C1  BDP d 305      15.154  36.308  37.419  0.00  0.00     0.160 C 
ATOM     87  C4  BDP d 305      13.214  38.365  37.950  0.00  0.00     0.103 C 
ATOM     88  O6A BDP d 305      15.361  40.627  39.142  0.00  0.00    -0.646 OA
ATOM     89  C3  BDP d 305      13.052  37.455  36.717  0.00  0.00     0.092 C 
ATOM     90  O2  BDP d 305      13.574  35.197  35.982  0.00  0.00    -0.388 OA
ATOM     91  O5  BDP d 305      15.316  37.260  38.514  0.00  0.00    -0.340 OA
ATOM     92  H   BDP d 305      15.148  39.033  37.375  0.00  0.00     0.104 H 
ATOM     93  H   BDP d 305      11.590  36.676  35.638  0.00  0.00     0.210 HD
ATOM     94  H   BDP d 305      13.135  35.722  37.911  0.00  0.00     0.094 H 
ATOM     95  H   BDP d 305      15.647  36.689  36.549  0.00  0.00     0.133 H 
ATOM     96  H   BDP d 305      12.753  37.892  38.791  0.00  0.00     0.092 H 
ATOM     97  H   BDP d 305      13.521  37.904  35.867  0.00  0.00     0.091 H 
ATOM     98  H   BDP d 305      14.057  35.549  35.219  0.00  0.00     0.210 HD
ATOM     99  O6B BDP d 301      22.771  34.622  51.076  0.00  0.00    -0.646 OA
ATOM    100  C6  BDP d 301      22.180  33.554  51.352  0.00  0.00     0.206 C 
ATOM    101  O6A BDP d 301      22.183  32.458  50.750  0.00  0.00    -0.646 OA
ATOM    102  O5  BDP d 301      22.125  34.140  53.689  0.00  0.00    -0.340 OA
ATOM    103  C5  BDP d 301      21.329  33.588  52.615  0.00  0.00     0.152 C 
ATOM    104  C3  BDP d 301      19.274  34.380  53.811  0.00  0.00     0.092 C 
ATOM    105  C1  BDP d 301      21.407  34.204  54.959  0.00  0.00     0.156 C 
ATOM    106  O1  BDP d 301      22.377  34.752  55.977  0.00  0.00    -0.368 OA
ATOM    107  C4  BDP d 301      20.028  34.374  52.457  0.00  0.00     0.103 C 
ATOM    108  C2  BDP d 301      20.158  35.031  54.864  0.00  0.00     0.110 C 
ATOM    109  O2  BDP d 301      19.524  35.041  56.141  0.00  0.00    -0.388 OA
ATOM    110  O4  BDP d 301      19.287  33.636  51.554  0.00  0.00    -0.348 OA
ATOM    111  O3  BDP d 301      18.064  35.130  53.692  0.00  0.00    -0.390 OA
ATOM    112  H   BDP d 301      21.033  32.583  52.833  0.00  0.00     0.104 H 
ATOM    113  H   BDP d 301      19.041  33.374  54.091  0.00  0.00     0.091 H 
ATOM    114  H   BDP d 301      21.068  33.231  55.248  0.00  0.00     0.133 H 
ATOM    115  H   BDP d 301      22.673  35.633  55.700  0.00  0.00     0.212 HD
ATOM    116  H   BDP d 301      20.193  35.383  52.145  0.00  0.00     0.092 H 
ATOM    117  H   BDP d 301      20.360  36.044  54.585  0.00  0.00     0.094 H 
ATOM    118  H   BDP d 301      19.331  34.130  56.413  0.00  0.00     0.210 HD
ATOM    119  H   BDP d 301      18.273  36.043  53.437  0.00  0.00     0.210 HD
ATOM    120  OSC ASG d 304      16.628  30.893  36.323  0.00  0.00    -0.572 OA
ATOM    121  O3  ASG d 304      15.729  35.075  37.795  0.00  0.00    -0.348 OA
ATOM    122  C5  ASG d 304      14.178  32.495  40.065  0.00  0.00     0.090 C 
ATOM    123  C6  ASG d 304      13.628  31.097  39.921  0.00  0.00     0.043 C 
ATOM    124  O4  ASG d 304      15.714  32.234  38.201  0.00  0.00    -0.246 OA
ATOM    125  C7  ASG d 304      18.239  36.003  40.647  0.00  0.00     0.214 C 
ATOM    126  C8  ASG d 304      18.544  37.463  40.891  0.00  0.00    -0.003 C 
ATOM    127  S   ASG d 304      15.449  31.618  36.752  0.00  0.00     0.252 S 
ATOM    128  OSB ASG d 304      14.313  30.714  36.799  0.00  0.00    -0.572 OA
ATOM    129  N   ASG d 304      16.914  35.782  40.297  0.00  0.00    -0.349 N 
ATOM    130  C4  ASG d 304      14.685  33.086  38.728  0.00  0.00     0.114 C 
ATOM    131  C3  ASG d 304      15.246  34.498  38.998  0.00  0.00     0.094 C 
ATOM    132  C1  ASG d 304      15.829  33.777  41.289  0.00  0.00     0.154 C 
ATOM    133  O7  ASG d 304      19.077  35.122  40.752  0.00  0.00    -0.274 OA
ATOM    134  O6  ASG d 304      12.796  30.764  41.034  0.00  0.00    -0.398 OA
ATOM    135  O5  ASG d 304      15.263  32.457  41.039  0.00  0.00    -0.349 OA
ATOM    136  C2  ASG d 304      16.379  34.410  40.007  0.00  0.00     0.087 C 
ATOM    137  OSA ASG d 304      15.162  32.689  35.812  0.00  0.00    -0.572 OA
ATOM    138  H   ASG d 304      13.385  33.134  40.391  0.00  0.00     0.090 H 
ATOM    139  H   ASG d 304      14.441  30.403  39.871  0.00  0.00     0.078 H 
ATOM    140  H   ASG d 304      13.043  31.048  39.027  0.00  0.00     0.078 H 
ATOM    141  H   ASG d 304      17.658  38.043  40.739  0.00  0.00     0.040 H 
ATOM    142  H   ASG d 304      19.303  37.787  40.211  0.00  0.00     0.040 H 
ATOM    143  H   ASG d 304      18.887  37.593  41.896  0.00  0.00     0.040 H 
ATOM    144  H   ASG d 304      16.305  36.553  40.237  0.00  0.00     0.163 HD
ATOM    145  H   ASG d 304      13.888  33.151  38.017  0.00  0.00     0.093 H 
ATOM    146  H   ASG d 304      14.461  35.112  39.386  0.00  0.00     0.091 H 
ATOM    147  H   ASG d 304      15.054  34.415  41.659  0.00  0.00     0.132 H 
ATOM    148  H   ASG d 304      13.318  30.805  41.851  0.00  0.00     0.209 HD
ATOM    149  H   ASG d 304      17.177  33.815  39.615  0.00  0.00     0.084 H 
ENDROOT
TORSDOF 38
ENDMDL
MODEL 21
REMARK VINA RESULT:      -6.9      2.421      3.408
REMARK  0 active torsions:
REMARK  status: ('A' for Active; 'I' for Inactive)
REMARK       I    between atoms: C6_2  and  C5_74 
REMARK       I    between atoms: C1_3  and  O4_24 
REMARK       I    between atoms: O6_4  and  C6_26 
REMARK       I    between atoms: C5_5  and  C6_12 
REMARK       I    between atoms: C4_6  and  O4_22 
REMARK       I    between atoms: C6_8  and  C5_90 
REMARK       I    between atoms: C6_8  and  O6_83 
REMARK       I    between atoms: O3_11  and  C3_60 
REMARK       I    between atoms: O3_11  and  C1_29 
REMARK       I    between atoms: C5_13  and  C6_18 
REMARK       I    between atoms: O4_14  and  C4_88 
REMARK       I    between atoms: O4_14  and  S_15 
REMARK       I    between atoms: C6_16  and  C5_28 
REMARK       I    between atoms: S_17  and  O4_22 
REMARK       I    between atoms: C6_18  and  O6_66 
REMARK       I    between atoms: O4_20  and  C4_46 
REMARK       I    between atoms: O4_20  and  C1_61 
REMARK       I    between atoms: O4_21  and  C4_54 
REMARK       I    between atoms: O4_21  and  S_40 
REMARK       I    between atoms: O4_24  and  C4_35 
REMARK       I    between atoms: O3_25  and  C3_48 
REMARK       I    between atoms: C6_26  and  C5_50 
REMARK       I    between atoms: C2_27  and  O2_55 
REMARK       I    between atoms: O3_31  and  C3_37 
REMARK       I    between atoms: C2_32  and  N_72 
REMARK       I    between atoms: C7_33  and  C8_39 
REMARK       I    between atoms: C7_33  and  N_52 
REMARK       I    between atoms: C1_34  and  O4_86 
REMARK       I    between atoms: C3_36  and  O3_87 
REMARK       I    between atoms: C2_47  and  O2_85 
REMARK       I    between atoms: N_52  and  C2_71 
REMARK       I    between atoms: C3_53  and  O3_81 
REMARK       I    between atoms: C1_56  and  O3_81 
REMARK       I    between atoms: C7_57  and  C8_64 
REMARK       I    between atoms: C7_57  and  N_63 
REMARK       I    between atoms: C8_58  and  C7_73 
REMARK       I    between atoms: C1_59  and  O1_68 
REMARK       I    between atoms: N_63  and  C2_67 
REMARK       I    between atoms: C4_69  and  O4_86 
REMARK       I    between atoms: N_72  and  C7_73 
REMARK       I    between atoms: C2_77  and  O2_82 
ROOT
ATOM      1  OSB ASG d 302      18.077  41.274  47.726  0.00  0.00    -0.572 OA
ATOM      2  O6  ASG d 302      17.884  38.817  44.088  0.00  0.00    -0.398 OA
ATOM      3  O4  ASG d 302      19.114  39.071  48.232  0.00  0.00    -0.246 OA
ATOM      4  S   ASG d 302      18.486  40.421  48.824  0.00  0.00     0.252 S 
ATOM      5  C6  ASG d 302      18.073  39.124  45.466  0.00  0.00     0.043 C 
ATOM      6  C2  ASG d 302      20.048  36.409  48.134  0.00  0.00     0.087 C 
ATOM      7  C1  ASG d 302      20.192  36.316  46.621  0.00  0.00     0.154 C 
ATOM      8  O5  ASG d 302      19.777  37.536  45.965  0.00  0.00    -0.349 OA
ATOM      9  C5  ASG d 302      18.399  37.877  46.248  0.00  0.00     0.090 C 
ATOM     10  O7  ASG d 302      21.991  36.035  50.226  0.00  0.00    -0.274 OA
ATOM     11  C3  ASG d 302      18.593  36.711  48.440  0.00  0.00     0.094 C 
ATOM     12  C8  ASG d 302      21.650  33.658  50.274  0.00  0.00    -0.003 C 
ATOM     13  OSA ASG d 302      17.338  40.116  49.658  0.00  0.00    -0.572 OA
ATOM     14  N   ASG d 302      20.451  35.116  48.763  0.00  0.00    -0.349 N 
ATOM     15  C7  ASG d 302      21.406  35.063  49.775  0.00  0.00     0.214 C 
ATOM     16  OSC ASG d 302      19.487  41.102  49.614  0.00  0.00    -0.572 OA
ATOM     17  O3  ASG d 302      18.476  36.855  49.809  0.00  0.00    -0.348 OA
ATOM     18  C4  ASG d 302      18.216  38.044  47.770  0.00  0.00     0.114 C 
ATOM     19  H   ASG d 302      17.676  39.629  43.601  0.00  0.00     0.209 HD
ATOM     20  H   ASG d 302      17.177  39.558  45.856  0.00  0.00     0.078 H 
ATOM     21  H   ASG d 302      18.888  39.812  45.558  0.00  0.00     0.078 H 
ATOM     22  H   ASG d 302      20.678  37.180  48.526  0.00  0.00     0.084 H 
ATOM     23  H   ASG d 302      19.568  35.514  46.289  0.00  0.00     0.132 H 
ATOM     24  H   ASG d 302      17.720  37.107  45.947  0.00  0.00     0.090 H 
ATOM     25  H   ASG d 302      17.955  35.931  48.081  0.00  0.00     0.091 H 
ATOM     26  H   ASG d 302      22.390  33.678  51.047  0.00  0.00     0.040 H 
ATOM     27  H   ASG d 302      21.996  33.048  49.466  0.00  0.00     0.040 H 
ATOM     28  H   ASG d 302      20.740  33.254  50.663  0.00  0.00     0.040 H 
ATOM     29  H   ASG d 302      20.031  34.281  48.455  0.00  0.00     0.163 HD
ATOM     30  H   ASG d 302      17.207  38.311  48.006  0.00  0.00     0.093 H 
ATOM     31  C6  BDP d 303      13.885  35.812  49.846  0.00  0.00     0.206 C 
ATOM     32  O4  BDP d 303      14.303  34.734  52.583  0.00  0.00    -0.348 OA
ATOM     33  O3  BDP d 303      16.694  35.343  53.971  0.00  0.00    -0.390 OA
ATOM     34  C3  BDP d 303      16.636  35.196  52.542  0.00  0.00     0.092 C 
ATOM     35  O6B BDP d 303      13.394  36.897  50.217  0.00  0.00    -0.646 OA
ATOM     36  C4  BDP d 303      15.244  35.587  52.026  0.00  0.00     0.103 C 
ATOM     37  C2  BDP d 303      17.653  36.125  51.909  0.00  0.00     0.110 C 
ATOM     38  O6A BDP d 303      13.445  34.975  49.025  0.00  0.00    -0.646 OA
ATOM     39  C1  BDP d 303      17.575  35.984  50.397  0.00  0.00     0.160 C 
ATOM     40  C5  BDP d 303      15.221  35.435  50.481  0.00  0.00     0.152 C 
ATOM     41  O5  BDP d 303      16.244  36.293  49.903  0.00  0.00    -0.340 OA
ATOM     42  O2  BDP d 303      18.975  35.785  52.338  0.00  0.00    -0.388 OA
ATOM     43  H   BDP d 303      17.577  35.093  54.285  0.00  0.00     0.210 HD
ATOM     44  H   BDP d 303      16.841  34.177  52.291  0.00  0.00     0.091 H 
ATOM     45  H   BDP d 303      15.021  36.599  52.294  0.00  0.00     0.092 H 
ATOM     46  H   BDP d 303      17.437  37.131  52.203  0.00  0.00     0.094 H 
ATOM     47  H   BDP d 303      17.807  34.970  50.148  0.00  0.00     0.133 H 
ATOM     48  H   BDP d 303      15.396  34.398  50.279  0.00  0.00     0.104 H 
ATOM     49  H   BDP d 303      19.176  34.874  52.073  0.00  0.00     0.210 HD
ATOM     50  C1  ASG d 306       5.622  37.188  50.770  0.00  0.00     0.151 C 
ATOM     51  C4  ASG d 306       4.025  39.617  50.393  0.00  0.00     0.089 C 
ATOM     52  C6  ASG d 306       5.871  40.777  51.701  0.00  0.00     0.043 C 
ATOM     53  S   ASG d 306       2.069  40.539  51.795  0.00  0.00     0.252 S 
ATOM     54  O4  ASG d 306       3.242  39.490  51.581  0.00  0.00    -0.249 OA
ATOM     55  OSB ASG d 306       1.381  40.229  53.035  0.00  0.00    -0.572 OA
ATOM     56  OSA ASG d 306       2.631  41.875  51.875  0.00  0.00    -0.572 OA
ATOM     57  C3  ASG d 306       3.717  38.385  49.468  0.00  0.00    -0.014 C 
ATOM     58  C7  ASG d 306       3.416  34.701  50.126  0.00  0.00     0.214 C 
ATOM     59  N   ASG d 306       4.014  35.826  49.553  0.00  0.00    -0.352 N 
ATOM     60  C8  ASG d 306       3.348  33.533  49.174  0.00  0.00    -0.003 C 
ATOM     61  C2  ASG d 306       4.193  37.092  50.332  0.00  0.00     0.062 C 
ATOM     62  O5  ASG d 306       5.849  38.395  51.536  0.00  0.00    -0.349 OA
ATOM     63  O6  ASG d 306       7.225  40.693  52.143  0.00  0.00    -0.398 OA
ATOM     64  O7  ASG d 306       2.994  34.646  51.277  0.00  0.00    -0.274 OA
ATOM     65  OSC ASG d 306       1.142  40.467  50.688  0.00  0.00    -0.572 OA
ATOM     66  C5  ASG d 306       5.528  39.614  50.797  0.00  0.00     0.088 C 
ATOM     67  H   ASG d 306       6.257  37.226  49.910  0.00  0.00     0.132 H 
ATOM     68  H   ASG d 306       3.795  40.523  49.872  0.00  0.00     0.089 H 
ATOM     69  H   ASG d 306       5.222  40.763  52.553  0.00  0.00     0.078 H 
ATOM     70  H   ASG d 306       5.745  41.687  51.152  0.00  0.00     0.078 H 
ATOM     71  H   ASG d 306       4.269  38.452  48.554  0.00  0.00     0.040 H 
ATOM     72  H   ASG d 306       2.684  38.332  49.195  0.00  0.00     0.040 H 
ATOM     73  H   ASG d 306       4.324  35.786  48.619  0.00  0.00     0.163 HD
ATOM     74  H   ASG d 306       3.774  33.814  48.234  0.00  0.00     0.040 H 
ATOM     75  H   ASG d 306       2.326  33.247  49.032  0.00  0.00     0.040 H 
ATOM     76  H   ASG d 306       3.895  32.708  49.582  0.00  0.00     0.040 H 
ATOM     77  H   ASG d 306       3.571  37.076  51.203  0.00  0.00     0.080 H 
ATOM     78  H   ASG d 306       7.352  39.871  52.642  0.00  0.00     0.209 HD
ATOM     79  H   ASG d 306       6.088  39.681  49.887  0.00  0.00     0.090 H 
ATOM     80  C5  BDP d 305       7.696  34.438  51.700  0.00  0.00     0.152 C 
ATOM     81  O6B BDP d 305       9.030  35.204  49.927  0.00  0.00    -0.646 OA
ATOM     82  C6  BDP d 305       8.027  34.526  50.217  0.00  0.00     0.206 C 
ATOM     83  O4  BDP d 305       5.922  36.068  51.541  0.00  0.00    -0.348 OA
ATOM     84  O3  BDP d 305       6.144  36.714  54.300  0.00  0.00    -0.390 OA
ATOM     85  C2  BDP d 305       8.070  35.306  54.450  0.00  0.00     0.110 C 
ATOM     86  C1  BDP d 305       8.748  34.057  53.867  0.00  0.00     0.160 C 
ATOM     87  C4  BDP d 305       7.054  35.731  52.255  0.00  0.00     0.103 C 
ATOM     88  O6A BDP d 305       7.236  33.902  49.468  0.00  0.00    -0.646 OA
ATOM     89  C3  BDP d 305       6.745  35.539  53.751  0.00  0.00     0.092 C 
ATOM     90  O2  BDP d 305       7.888  35.108  55.854  0.00  0.00    -0.388 OA
ATOM     91  O5  BDP d 305       8.939  34.190  52.426  0.00  0.00    -0.340 OA
ATOM     92  H   BDP d 305       6.984  33.650  51.830  0.00  0.00     0.104 H 
ATOM     93  H   BDP d 305       5.957  36.572  55.242  0.00  0.00     0.210 HD
ATOM     94  H   BDP d 305       8.678  36.172  54.294  0.00  0.00     0.094 H 
ATOM     95  H   BDP d 305       8.112  33.219  54.059  0.00  0.00     0.133 H 
ATOM     96  H   BDP d 305       7.742  36.543  52.146  0.00  0.00     0.092 H 
ATOM     97  H   BDP d 305       6.069  34.720  53.882  0.00  0.00     0.091 H 
ATOM     98  H   BDP d 305       7.337  34.324  56.001  0.00  0.00     0.210 HD
ATOM     99  O6B BDP d 301      21.889  32.588  45.350  0.00  0.00    -0.646 OA
ATOM    100  C6  BDP d 301      22.527  33.388  46.070  0.00  0.00     0.206 C 
ATOM    101  O6A BDP d 301      22.821  33.313  47.283  0.00  0.00    -0.646 OA
ATOM    102  O5  BDP d 301      23.699  34.249  44.150  0.00  0.00    -0.340 OA
ATOM    103  C5  BDP d 301      23.026  34.643  45.367  0.00  0.00     0.152 C 
ATOM    104  C3  BDP d 301      22.538  36.861  44.307  0.00  0.00     0.092 C 
ATOM    105  C1  BDP d 301      24.235  35.381  43.398  0.00  0.00     0.156 C 
ATOM    106  O1  BDP d 301      24.940  34.807  42.194  0.00  0.00    -0.368 OA
ATOM    107  C4  BDP d 301      21.923  35.656  45.062  0.00  0.00     0.103 C 
ATOM    108  C2  BDP d 301      23.167  36.364  43.015  0.00  0.00     0.110 C 
ATOM    109  O2  BDP d 301      23.774  37.430  42.289  0.00  0.00    -0.388 OA
ATOM    110  O4  BDP d 301      21.503  36.092  46.303  0.00  0.00    -0.348 OA
ATOM    111  O3  BDP d 301      21.518  37.811  43.991  0.00  0.00    -0.390 OA
ATOM    112  H   BDP d 301      23.698  35.143  46.033  0.00  0.00     0.104 H 
ATOM    113  H   BDP d 301      23.276  37.328  44.926  0.00  0.00     0.091 H 
ATOM    114  H   BDP d 301      24.918  35.942  44.002  0.00  0.00     0.133 H 
ATOM    115  H   BDP d 301      24.308  34.303  41.659  0.00  0.00     0.212 HD
ATOM    116  H   BDP d 301      21.135  35.238  44.471  0.00  0.00     0.092 H 
ATOM    117  H   BDP d 301      22.414  35.925  42.394  0.00  0.00     0.094 H 
ATOM    118  H   BDP d 301      24.462  37.842  42.834  0.00  0.00     0.210 HD
ATOM    119  H   BDP d 301      20.847  37.390  43.431  0.00  0.00     0.210 HD
ATOM    120  OSC ASG d 304      12.022  33.078  58.452  0.00  0.00    -0.572 OA
ATOM    121  O3  ASG d 304      10.005  33.856  54.479  0.00  0.00    -0.348 OA
ATOM    122  C5  ASG d 304      12.573  36.514  55.219  0.00  0.00     0.090 C 
ATOM    123  C6  ASG d 304      13.155  37.164  56.451  0.00  0.00     0.043 C 
ATOM    124  O4  ASG d 304      12.078  34.437  56.377  0.00  0.00    -0.246 OA
ATOM    125  C7  ASG d 304      12.287  32.524  51.595  0.00  0.00     0.214 C 
ATOM    126  C8  ASG d 304      11.639  32.128  50.288  0.00  0.00    -0.003 C 
ATOM    127  S   ASG d 304      11.397  34.213  57.803  0.00  0.00     0.252 S 
ATOM    128  OSB ASG d 304      11.568  35.398  58.624  0.00  0.00    -0.572 OA
ATOM    129  N   ASG d 304      11.686  33.630  52.179  0.00  0.00    -0.349 N 
ATOM    130  C4  ASG d 304      11.496  35.454  55.546  0.00  0.00     0.114 C 
ATOM    131  C3  ASG d 304      10.993  34.841  54.223  0.00  0.00     0.094 C 
ATOM    132  C1  ASG d 304      13.210  35.292  53.227  0.00  0.00     0.154 C 
ATOM    133  O7  ASG d 304      13.238  31.928  52.073  0.00  0.00    -0.274 OA
ATOM    134  O6  ASG d 304      13.794  38.398  56.118  0.00  0.00    -0.398 OA
ATOM    135  O5  ASG d 304      13.666  35.904  54.470  0.00  0.00    -0.349 OA
ATOM    136  C2  ASG d 304      12.158  34.207  53.481  0.00  0.00     0.087 C 
ATOM    137  OSA ASG d 304       9.976  33.959  57.631  0.00  0.00    -0.572 OA
ATOM    138  H   ASG d 304      12.082  37.270  54.643  0.00  0.00     0.090 H 
ATOM    139  H   ASG d 304      13.874  36.504  56.889  0.00  0.00     0.078 H 
ATOM    140  H   ASG d 304      12.363  37.362  57.142  0.00  0.00     0.078 H 
ATOM    141  H   ASG d 304      10.829  32.794  50.075  0.00  0.00     0.040 H 
ATOM    142  H   ASG d 304      11.267  31.128  50.364  0.00  0.00     0.040 H 
ATOM    143  H   ASG d 304      12.361  32.181  49.501  0.00  0.00     0.040 H 
ATOM    144  H   ASG d 304      10.922  34.051  51.721  0.00  0.00     0.163 HD
ATOM    145  H   ASG d 304      10.673  35.899  56.066  0.00  0.00     0.093 H 
ATOM    146  H   ASG d 304      10.562  35.617  53.625  0.00  0.00     0.091 H 
ATOM    147  H   ASG d 304      12.756  36.048  52.622  0.00  0.00     0.132 H 
ATOM    148  H   ASG d 304      14.515  38.229  55.490  0.00  0.00     0.209 HD
ATOM    149  H   ASG d 304      12.580  33.415  54.065  0.00  0.00     0.084 H 
ENDROOT
TORSDOF 38
ENDMDL
MODEL 22
REMARK VINA RESULT:      -6.8      3.125      4.027
REMARK  0 active torsions:
REMARK  status: ('A' for Active; 'I' for Inactive)
REMARK       I    between atoms: C6_2  and  C5_74 
REMARK       I    between atoms: C1_3  and  O4_24 
REMARK       I    between atoms: O6_4  and  C6_26 
REMARK       I    between atoms: C5_5  and  C6_12 
REMARK       I    between atoms: C4_6  and  O4_22 
REMARK       I    between atoms: C6_8  and  C5_90 
REMARK       I    between atoms: C6_8  and  O6_83 
REMARK       I    between atoms: O3_11  and  C3_60 
REMARK       I    between atoms: O3_11  and  C1_29 
REMARK       I    between atoms: C5_13  and  C6_18 
REMARK       I    between atoms: O4_14  and  C4_88 
REMARK       I    between atoms: O4_14  and  S_15 
REMARK       I    between atoms: C6_16  and  C5_28 
REMARK       I    between atoms: S_17  and  O4_22 
REMARK       I    between atoms: C6_18  and  O6_66 
REMARK       I    between atoms: O4_20  and  C4_46 
REMARK       I    between atoms: O4_20  and  C1_61 
REMARK       I    between atoms: O4_21  and  C4_54 
REMARK       I    between atoms: O4_21  and  S_40 
REMARK       I    between atoms: O4_24  and  C4_35 
REMARK       I    between atoms: O3_25  and  C3_48 
REMARK       I    between atoms: C6_26  and  C5_50 
REMARK       I    between atoms: C2_27  and  O2_55 
REMARK       I    between atoms: O3_31  and  C3_37 
REMARK       I    between atoms: C2_32  and  N_72 
REMARK       I    between atoms: C7_33  and  C8_39 
REMARK       I    between atoms: C7_33  and  N_52 
REMARK       I    between atoms: C1_34  and  O4_86 
REMARK       I    between atoms: C3_36  and  O3_87 
REMARK       I    between atoms: C2_47  and  O2_85 
REMARK       I    between atoms: N_52  and  C2_71 
REMARK       I    between atoms: C3_53  and  O3_81 
REMARK       I    between atoms: C1_56  and  O3_81 
REMARK       I    between atoms: C7_57  and  C8_64 
REMARK       I    between atoms: C7_57  and  N_63 
REMARK       I    between atoms: C8_58  and  C7_73 
REMARK       I    between atoms: C1_59  and  O1_68 
REMARK       I    between atoms: N_63  and  C2_67 
REMARK       I    between atoms: C4_69  and  O4_86 
REMARK       I    between atoms: N_72  and  C7_73 
REMARK       I    between atoms: C2_77  and  O2_82 
ROOT
ATOM      1  OSB ASG d 302      19.245  40.503  44.888  0.00  0.00    -0.572 OA
ATOM      2  O6  ASG d 302      18.153  37.959  41.475  0.00  0.00    -0.398 OA
ATOM      3  O4  ASG d 302      20.824  38.583  44.826  0.00  0.00    -0.246 OA
ATOM      4  S   ASG d 302      20.216  39.785  45.691  0.00  0.00     0.252 S 
ATOM      5  C6  ASG d 302      18.798  38.338  42.687  0.00  0.00     0.043 C 
ATOM      6  C2  ASG d 302      22.168  36.175  44.221  0.00  0.00     0.087 C 
ATOM      7  C1  ASG d 302      21.726  36.072  42.768  0.00  0.00     0.154 C 
ATOM      8  O5  ASG d 302      20.847  37.158  42.395  0.00  0.00    -0.349 OA
ATOM      9  C5  ASG d 302      19.651  37.210  43.208  0.00  0.00     0.090 C 
ATOM     10  O7  ASG d 302      24.806  36.276  45.371  0.00  0.00    -0.274 OA
ATOM     11  C3  ASG d 302      20.920  36.172  45.084  0.00  0.00     0.094 C 
ATOM     12  C8  ASG d 302      25.005  33.884  45.412  0.00  0.00    -0.003 C 
ATOM     13  OSA ASG d 302      19.574  39.269  46.886  0.00  0.00    -0.572 OA
ATOM     14  N   ASG d 302      23.040  35.014  44.570  0.00  0.00    -0.349 N 
ATOM     15  C7  ASG d 302      24.303  35.191  45.128  0.00  0.00     0.214 C 
ATOM     16  OSC ASG d 302      21.284  40.684  46.068  0.00  0.00    -0.572 OA
ATOM     17  O3  ASG d 302      21.320  36.326  46.397  0.00  0.00    -0.348 OA
ATOM     18  C4  ASG d 302      20.047  37.376  44.690  0.00  0.00     0.114 C 
ATOM     19  H   ASG d 302      17.610  38.695  41.154  0.00  0.00     0.209 HD
ATOM     20  H   ASG d 302      18.057  38.584  43.418  0.00  0.00     0.078 H 
ATOM     21  H   ASG d 302      19.425  39.184  42.495  0.00  0.00     0.078 H 
ATOM     22  H   ASG d 302      22.730  37.071  44.382  0.00  0.00     0.084 H 
ATOM     23  H   ASG d 302      21.199  35.148  42.659  0.00  0.00     0.132 H 
ATOM     24  H   ASG d 302      19.082  36.306  43.151  0.00  0.00     0.090 H 
ATOM     25  H   ASG d 302      20.367  35.265  44.956  0.00  0.00     0.091 H 
ATOM     26  H   ASG d 302      25.966  34.081  45.838  0.00  0.00     0.040 H 
ATOM     27  H   ASG d 302      25.124  33.337  44.500  0.00  0.00     0.040 H 
ATOM     28  H   ASG d 302      24.422  33.308  46.099  0.00  0.00     0.040 H 
ATOM     29  H   ASG d 302      22.713  34.100  44.402  0.00  0.00     0.163 HD
ATOM     30  H   ASG d 302      19.179  37.432  45.313  0.00  0.00     0.093 H 
ATOM     31  C6  BDP d 303      17.428  34.343  48.150  0.00  0.00     0.206 C 
ATOM     32  O4  BDP d 303      19.093  33.453  50.445  0.00  0.00    -0.348 OA
ATOM     33  O3  BDP d 303      21.657  34.590  50.830  0.00  0.00    -0.390 OA
ATOM     34  C3  BDP d 303      21.076  34.394  49.530  0.00  0.00     0.092 C 
ATOM     35  O6B BDP d 303      16.910  35.310  48.744  0.00  0.00    -0.646 OA
ATOM     36  C4  BDP d 303      19.545  34.469  49.617  0.00  0.00     0.103 C 
ATOM     37  C2  BDP d 303      21.551  35.499  48.606  0.00  0.00     0.110 C 
ATOM     38  O6A BDP d 303      16.883  33.408  47.518  0.00  0.00    -0.646 OA
ATOM     39  C1  BDP d 303      20.920  35.302  47.238  0.00  0.00     0.160 C 
ATOM     40  C5  BDP d 303      18.953  34.272  48.196  0.00  0.00     0.152 C 
ATOM     41  O5  BDP d 303      19.469  35.310  47.316  0.00  0.00    -0.340 OA
ATOM     42  O2  BDP d 303      22.975  35.457  48.469  0.00  0.00    -0.388 OA
ATOM     43  H   BDP d 303      22.623  34.540  50.763  0.00  0.00     0.210 HD
ATOM     44  H   BDP d 303      21.371  33.434  49.161  0.00  0.00     0.091 H 
ATOM     45  H   BDP d 303      19.243  35.419  50.008  0.00  0.00     0.092 H 
ATOM     46  H   BDP d 303      21.267  36.445  49.018  0.00  0.00     0.094 H 
ATOM     47  H   BDP d 303      21.238  34.353  46.860  0.00  0.00     0.133 H 
ATOM     48  H   BDP d 303      19.242  33.291  47.883  0.00  0.00     0.104 H 
ATOM     49  H   BDP d 303      23.239  34.601  48.095  0.00  0.00     0.210 HD
ATOM     50  C1  ASG d 306      10.092  33.974  52.282  0.00  0.00     0.151 C 
ATOM     51  C4  ASG d 306       8.014  36.000  52.693  0.00  0.00     0.089 C 
ATOM     52  C6  ASG d 306       9.945  37.559  53.247  0.00  0.00     0.043 C 
ATOM     53  S   ASG d 306       6.618  36.529  54.794  0.00  0.00     0.252 S 
ATOM     54  O4  ASG d 306       7.801  35.745  54.082  0.00  0.00    -0.249 OA
ATOM     55  OSB ASG d 306       6.549  36.116  56.184  0.00  0.00    -0.572 OA
ATOM     56  OSA ASG d 306       6.881  37.955  54.726  0.00  0.00    -0.572 OA
ATOM     57  C3  ASG d 306       7.628  34.706  51.891  0.00  0.00    -0.014 C 
ATOM     58  C7  ASG d 306       8.369  31.061  52.402  0.00  0.00     0.214 C 
ATOM     59  N   ASG d 306       8.451  32.271  51.708  0.00  0.00    -0.352 N 
ATOM     60  C8  ASG d 306       8.174  29.879  51.487  0.00  0.00    -0.003 C 
ATOM     61  C2  ASG d 306       8.658  33.567  52.428  0.00  0.00     0.062 C 
ATOM     62  O5  ASG d 306      10.348  35.222  52.968  0.00  0.00    -0.349 OA
ATOM     63  O6  ASG d 306      11.350  37.774  53.124  0.00  0.00    -0.398 OA
ATOM     64  O7  ASG d 306       8.451  30.951  53.622  0.00  0.00    -0.274 OA
ATOM     65  OSC ASG d 306       5.368  36.233  54.130  0.00  0.00    -0.572 OA
ATOM     66  C5  ASG d 306       9.522  36.325  52.482  0.00  0.00     0.088 C 
ATOM     67  H   ASG d 306      10.318  34.120  51.247  0.00  0.00     0.132 H 
ATOM     68  H   ASG d 306       7.419  36.824  52.354  0.00  0.00     0.089 H 
ATOM     69  H   ASG d 306       9.698  37.433  54.282  0.00  0.00     0.078 H 
ATOM     70  H   ASG d 306       9.432  38.407  52.843  0.00  0.00     0.078 H 
ATOM     71  H   ASG d 306       7.753  34.862  50.840  0.00  0.00     0.040 H 
ATOM     72  H   ASG d 306       6.605  34.429  52.037  0.00  0.00     0.040 H 
ATOM     73  H   ASG d 306       8.373  32.271  50.726  0.00  0.00     0.163 HD
ATOM     74  H   ASG d 306       8.132  30.217  50.472  0.00  0.00     0.040 H 
ATOM     75  H   ASG d 306       7.260  29.381  51.735  0.00  0.00     0.040 H 
ATOM     76  H   ASG d 306       8.993  29.200  51.603  0.00  0.00     0.040 H 
ATOM     77  H   ASG d 306       8.443  33.445  53.469  0.00  0.00     0.080 H 
ATOM     78  H   ASG d 306      11.827  37.012  53.487  0.00  0.00     0.209 HD
ATOM     79  H   ASG d 306       9.655  36.484  51.432  0.00  0.00     0.090 H 
ATOM     80  C5  BDP d 305      12.879  31.749  52.177  0.00  0.00     0.152 C 
ATOM     81  O6B BDP d 305      13.227  32.729  50.072  0.00  0.00    -0.646 OA
ATOM     82  C6  BDP d 305      12.578  31.863  50.689  0.00  0.00     0.206 C 
ATOM     83  O4  BDP d 305      10.891  32.964  52.811  0.00  0.00    -0.348 OA
ATOM     84  O3  BDP d 305      12.036  33.719  55.301  0.00  0.00    -0.390 OA
ATOM     85  C2  BDP d 305      14.111  32.752  54.611  0.00  0.00     0.110 C 
ATOM     86  C1  BDP d 305      14.748  31.658  53.741  0.00  0.00     0.160 C 
ATOM     87  C4  BDP d 305      12.255  32.893  53.010  0.00  0.00     0.103 C 
ATOM     88  O6A BDP d 305      11.703  31.066  50.271  0.00  0.00    -0.646 OA
ATOM     89  C3  BDP d 305      12.601  32.682  54.496  0.00  0.00     0.092 C 
ATOM     90  O2  BDP d 305      14.537  32.560  55.963  0.00  0.00    -0.388 OA
ATOM     91  O5  BDP d 305      14.328  31.788  52.349  0.00  0.00    -0.340 OA
ATOM     92  H   BDP d 305      12.452  30.833  52.527  0.00  0.00     0.104 H 
ATOM     93  H   BDP d 305      12.266  33.567  56.231  0.00  0.00     0.210 HD
ATOM     94  H   BDP d 305      14.420  33.722  54.282  0.00  0.00     0.094 H 
ATOM     95  H   BDP d 305      14.423  30.711  54.116  0.00  0.00     0.133 H 
ATOM     96  H   BDP d 305      12.664  33.828  52.690  0.00  0.00     0.092 H 
ATOM     97  H   BDP d 305      12.213  31.743  54.832  0.00  0.00     0.091 H 
ATOM     98  H   BDP d 305      14.260  31.682  56.267  0.00  0.00     0.210 HD
ATOM     99  O6B BDP d 301      23.514  32.750  40.728  0.00  0.00    -0.646 OA
ATOM    100  C6  BDP d 301      24.204  33.686  41.189  0.00  0.00     0.206 C 
ATOM    101  O6A BDP d 301      24.958  33.709  42.187  0.00  0.00    -0.646 OA
ATOM    102  O5  BDP d 301      24.330  34.721  39.017  0.00  0.00    -0.340 OA
ATOM    103  C5  BDP d 301      24.121  34.998  40.420  0.00  0.00     0.152 C 
ATOM    104  C3  BDP d 301      22.815  37.033  39.761  0.00  0.00     0.092 C 
ATOM    105  C1  BDP d 301      24.285  35.919  38.183  0.00  0.00     0.156 C 
ATOM    106  O1  BDP d 301      24.565  35.473  36.768  0.00  0.00    -0.368 OA
ATOM    107  C4  BDP d 301      22.804  35.747  40.625  0.00  0.00     0.103 C 
ATOM    108  C2  BDP d 301      22.976  36.644  38.300  0.00  0.00     0.110 C 
ATOM    109  O2  BDP d 301      23.019  37.793  37.457  0.00  0.00    -0.388 OA
ATOM    110  O4  BDP d 301      22.823  36.120  41.955  0.00  0.00    -0.348 OA
ATOM    111  O3  BDP d 301      21.582  37.738  39.920  0.00  0.00    -0.390 OA
ATOM    112  H   BDP d 301      24.881  35.647  40.801  0.00  0.00     0.104 H 
ATOM    113  H   BDP d 301      23.623  37.662  40.071  0.00  0.00     0.091 H 
ATOM    114  H   BDP d 301      25.019  36.627  38.505  0.00  0.00     0.133 H 
ATOM    115  H   BDP d 301      23.892  34.832  36.492  0.00  0.00     0.212 HD
ATOM    116  H   BDP d 301      21.951  35.157  40.363  0.00  0.00     0.092 H 
ATOM    117  H   BDP d 301      22.147  36.039  37.996  0.00  0.00     0.094 H 
ATOM    118  H   BDP d 301      23.765  38.356  37.716  0.00  0.00     0.210 HD
ATOM    119  H   BDP d 301      20.846  37.170  39.641  0.00  0.00     0.210 HD
ATOM    120  OSC ASG d 304      19.677  31.519  56.635  0.00  0.00    -0.572 OA
ATOM    121  O3  ASG d 304      16.156  31.743  53.805  0.00  0.00    -0.348 OA
ATOM    122  C5  ASG d 304      18.207  34.903  53.643  0.00  0.00     0.090 C 
ATOM    123  C6  ASG d 304      19.078  35.694  54.588  0.00  0.00     0.043 C 
ATOM    124  O4  ASG d 304      18.639  32.801  54.782  0.00  0.00    -0.246 OA
ATOM    125  C7  ASG d 304      17.349  30.842  50.192  0.00  0.00     0.214 C 
ATOM    126  C8  ASG d 304      16.338  30.282  49.218  0.00  0.00    -0.003 C 
ATOM    127  S   ASG d 304      18.631  32.478  56.345  0.00  0.00     0.252 S 
ATOM    128  OSB ASG d 304      18.864  33.696  57.102  0.00  0.00    -0.572 OA
ATOM    129  N   ASG d 304      16.811  31.813  51.025  0.00  0.00    -0.349 N 
ATOM    130  C4  ASG d 304      17.584  33.649  54.301  0.00  0.00     0.114 C 
ATOM    131  C3  ASG d 304      16.741  32.907  53.243  0.00  0.00     0.094 C 
ATOM    132  C1  ASG d 304      18.250  33.786  51.494  0.00  0.00     0.154 C 
ATOM    133  O7  ASG d 304      18.512  30.473  50.228  0.00  0.00    -0.274 OA
ATOM    134  O6  ASG d 304      19.268  37.025  54.104  0.00  0.00    -0.398 OA
ATOM    135  O5  ASG d 304      19.019  34.515  52.495  0.00  0.00    -0.349 OA
ATOM    136  C2  ASG d 304      17.627  32.512  52.073  0.00  0.00     0.087 C 
ATOM    137  OSA ASG d 304      17.340  31.926  56.722  0.00  0.00    -0.572 OA
ATOM    138  H   ASG d 304      17.386  35.521  53.347  0.00  0.00     0.090 H 
ATOM    139  H   ASG d 304      20.029  35.213  54.675  0.00  0.00     0.078 H 
ATOM    140  H   ASG d 304      18.596  35.741  55.542  0.00  0.00     0.078 H 
ATOM    141  H   ASG d 304      15.391  30.756  49.373  0.00  0.00     0.040 H 
ATOM    142  H   ASG d 304      16.239  29.228  49.374  0.00  0.00     0.040 H 
ATOM    143  H   ASG d 304      16.668  30.464  48.216  0.00  0.00     0.040 H 
ATOM    144  H   ASG d 304      15.862  32.051  50.924  0.00  0.00     0.163 HD
ATOM    145  H   ASG d 304      16.958  33.925  55.123  0.00  0.00     0.093 H 
ATOM    146  H   ASG d 304      15.962  33.558  52.904  0.00  0.00     0.091 H 
ATOM    147  H   ASG d 304      17.451  34.413  51.156  0.00  0.00     0.132 H 
ATOM    148  H   ASG d 304      19.705  36.995  53.238  0.00  0.00     0.209 HD
ATOM    149  H   ASG d 304      18.395  31.843  52.401  0.00  0.00     0.084 H 
ENDROOT
TORSDOF 38
ENDMDL
MODEL 23
REMARK VINA RESULT:      -6.8      7.058     16.920
REMARK  0 active torsions:
REMARK  status: ('A' for Active; 'I' for Inactive)
REMARK       I    between atoms: C6_2  and  C5_74 
REMARK       I    between atoms: C1_3  and  O4_24 
REMARK       I    between atoms: O6_4  and  C6_26 
REMARK       I    between atoms: C5_5  and  C6_12 
REMARK       I    between atoms: C4_6  and  O4_22 
REMARK       I    between atoms: C6_8  and  C5_90 
REMARK       I    between atoms: C6_8  and  O6_83 
REMARK       I    between atoms: O3_11  and  C3_60 
REMARK       I    between atoms: O3_11  and  C1_29 
REMARK       I    between atoms: C5_13  and  C6_18 
REMARK       I    between atoms: O4_14  and  C4_88 
REMARK       I    between atoms: O4_14  and  S_15 
REMARK       I    between atoms: C6_16  and  C5_28 
REMARK       I    between atoms: S_17  and  O4_22 
REMARK       I    between atoms: C6_18  and  O6_66 
REMARK       I    between atoms: O4_20  and  C4_46 
REMARK       I    between atoms: O4_20  and  C1_61 
REMARK       I    between atoms: O4_21  and  C4_54 
REMARK       I    between atoms: O4_21  and  S_40 
REMARK       I    between atoms: O4_24  and  C4_35 
REMARK       I    between atoms: O3_25  and  C3_48 
REMARK       I    between atoms: C6_26  and  C5_50 
REMARK       I    between atoms: C2_27  and  O2_55 
REMARK       I    between atoms: O3_31  and  C3_37 
REMARK       I    between atoms: C2_32  and  N_72 
REMARK       I    between atoms: C7_33  and  C8_39 
REMARK       I    between atoms: C7_33  and  N_52 
REMARK       I    between atoms: C1_34  and  O4_86 
REMARK       I    between atoms: C3_36  and  O3_87 
REMARK       I    between atoms: C2_47  and  O2_85 
REMARK       I    between atoms: N_52  and  C2_71 
REMARK       I    between atoms: C3_53  and  O3_81 
REMARK       I    between atoms: C1_56  and  O3_81 
REMARK       I    between atoms: C7_57  and  C8_64 
REMARK       I    between atoms: C7_57  and  N_63 
REMARK       I    between atoms: C8_58  and  C7_73 
REMARK       I    between atoms: C1_59  and  O1_68 
REMARK       I    between atoms: N_63  and  C2_67 
REMARK       I    between atoms: C4_69  and  O4_86 
REMARK       I    between atoms: N_72  and  C7_73 
REMARK       I    between atoms: C2_77  and  O2_82 
ROOT
ATOM      1  OSB ASG d 302       2.784  39.131  49.405  0.00  0.00    -0.572 OA
ATOM      2  O6  ASG d 302       5.914  38.131  52.322  0.00  0.00    -0.398 OA
ATOM      3  O4  ASG d 302       2.821  36.659  49.672  0.00  0.00    -0.246 OA
ATOM      4  S   ASG d 302       2.340  37.899  48.782  0.00  0.00     0.252 S 
ATOM      5  C6  ASG d 302       4.940  37.918  51.305  0.00  0.00     0.043 C 
ATOM      6  C2  ASG d 302       3.455  34.002  50.386  0.00  0.00     0.087 C 
ATOM      7  C1  ASG d 302       4.155  34.322  51.699  0.00  0.00     0.154 C 
ATOM      8  O5  ASG d 302       4.208  35.745  51.949  0.00  0.00    -0.349 OA
ATOM      9  C5  ASG d 302       4.901  36.466  50.903  0.00  0.00     0.090 C 
ATOM     10  O7  ASG d 302       1.175  32.331  49.838  0.00  0.00    -0.274 OA
ATOM     11  C3  ASG d 302       4.211  34.711  49.277  0.00  0.00     0.094 C 
ATOM     12  C8  ASG d 302       2.522  30.349  49.677  0.00  0.00    -0.003 C 
ATOM     13  OSA ASG d 302       2.895  37.802  47.445  0.00  0.00    -0.572 OA
ATOM     14  N   ASG d 302       3.460  32.527  50.154  0.00  0.00    -0.349 N 
ATOM     15  C7  ASG d 302       2.285  31.826  49.893  0.00  0.00     0.214 C 
ATOM     16  OSC ASG d 302       0.896  37.894  48.704  0.00  0.00    -0.572 OA
ATOM     17  O3  ASG d 302       3.540  34.468  48.094  0.00  0.00    -0.348 OA
ATOM     18  C4  ASG d 302       4.190  36.223  49.556  0.00  0.00     0.114 C 
ATOM     19  H   ASG d 302       5.925  39.069  52.568  0.00  0.00     0.209 HD
ATOM     20  H   ASG d 302       5.187  38.513  50.451  0.00  0.00     0.078 H 
ATOM     21  H   ASG d 302       3.979  38.197  51.684  0.00  0.00     0.078 H 
ATOM     22  H   ASG d 302       2.437  34.331  50.411  0.00  0.00     0.084 H 
ATOM     23  H   ASG d 302       5.153  33.944  51.630  0.00  0.00     0.132 H 
ATOM     24  H   ASG d 302       5.908  36.128  50.775  0.00  0.00     0.090 H 
ATOM     25  H   ASG d 302       5.223  34.365  49.221  0.00  0.00     0.091 H 
ATOM     26  H   ASG d 302       1.589  29.863  49.482  0.00  0.00     0.040 H 
ATOM     27  H   ASG d 302       2.967  29.927  50.555  0.00  0.00     0.040 H 
ATOM     28  H   ASG d 302       3.177  30.211  48.843  0.00  0.00     0.040 H 
ATOM     29  H   ASG d 302       4.313  32.038  50.185  0.00  0.00     0.163 HD
ATOM     30  H   ASG d 302       4.675  36.758  48.767  0.00  0.00     0.093 H 
ATOM     31  C6  BDP d 303       7.336  35.226  45.415  0.00  0.00     0.206 C 
ATOM     32  O4  BDP d 303       6.169  33.301  43.476  0.00  0.00    -0.348 OA
ATOM     33  O3  BDP d 303       3.453  32.542  43.728  0.00  0.00    -0.390 OA
ATOM     34  C3  BDP d 303       4.283  32.863  44.857  0.00  0.00     0.092 C 
ATOM     35  O6B BDP d 303       6.992  36.250  44.792  0.00  0.00    -0.646 OA
ATOM     36  C4  BDP d 303       5.364  33.874  44.449  0.00  0.00     0.103 C 
ATOM     37  C2  BDP d 303       3.426  33.498  45.935  0.00  0.00     0.110 C 
ATOM     38  O6A BDP d 303       8.464  34.896  45.851  0.00  0.00    -0.646 OA
ATOM     39  C1  BDP d 303       4.308  33.856  47.119  0.00  0.00     0.160 C 
ATOM     40  C5  BDP d 303       6.229  34.212  45.694  0.00  0.00     0.152 C 
ATOM     41  O5  BDP d 303       5.373  34.765  46.732  0.00  0.00    -0.340 OA
ATOM     42  O2  BDP d 303       2.415  32.584  46.371  0.00  0.00    -0.388 OA
ATOM     43  H   BDP d 303       2.775  31.903  43.998  0.00  0.00     0.210 HD
ATOM     44  H   BDP d 303       4.743  31.966  45.214  0.00  0.00     0.091 H 
ATOM     45  H   BDP d 303       4.912  34.765  44.068  0.00  0.00     0.092 H 
ATOM     46  H   BDP d 303       2.958  34.374  45.537  0.00  0.00     0.094 H 
ATOM     47  H   BDP d 303       4.746  32.953  47.490  0.00  0.00     0.133 H 
ATOM     48  H   BDP d 303       6.695  33.296  45.993  0.00  0.00     0.104 H 
ATOM     49  H   BDP d 303       2.833  31.788  46.733  0.00  0.00     0.210 HD
ATOM     50  C1  ASG d 306      12.199  39.193  39.791  0.00  0.00     0.151 C 
ATOM     51  C4  ASG d 306      12.395  42.032  39.083  0.00  0.00     0.089 C 
ATOM     52  C6  ASG d 306       9.853  41.982  39.064  0.00  0.00     0.043 C 
ATOM     53  S   ASG d 306      12.669  43.140  36.773  0.00  0.00     0.252 S 
ATOM     54  O4  ASG d 306      12.424  41.851  37.667  0.00  0.00    -0.249 OA
ATOM     55  OSB ASG d 306      12.690  42.748  35.375  0.00  0.00    -0.572 OA
ATOM     56  OSA ASG d 306      11.589  44.086  36.993  0.00  0.00    -0.572 OA
ATOM     57  C3  ASG d 306      13.666  41.338  39.694  0.00  0.00    -0.014 C 
ATOM     58  C7  ASG d 306      15.296  38.008  39.105  0.00  0.00     0.214 C 
ATOM     59  N   ASG d 306      14.619  38.951  39.882  0.00  0.00    -0.352 N 
ATOM     60  C8  ASG d 306      16.376  37.290  39.875  0.00  0.00    -0.003 C 
ATOM     61  C2  ASG d 306      13.499  39.765  39.314  0.00  0.00     0.062 C 
ATOM     62  O5  ASG d 306      11.079  39.943  39.263  0.00  0.00    -0.349 OA
ATOM     63  O6  ASG d 306       8.691  41.278  39.500  0.00  0.00    -0.398 OA
ATOM     64  O7  ASG d 306      15.049  37.769  37.927  0.00  0.00    -0.274 OA
ATOM     65  OSC ASG d 306      13.930  43.750  37.131  0.00  0.00    -0.572 OA
ATOM     66  C5  ASG d 306      11.106  41.355  39.634  0.00  0.00     0.088 C 
ATOM     67  H   ASG d 306      12.154  39.252  40.858  0.00  0.00     0.132 H 
ATOM     68  H   ASG d 306      12.394  43.070  39.342  0.00  0.00     0.089 H 
ATOM     69  H   ASG d 306       9.900  41.952  37.995  0.00  0.00     0.078 H 
ATOM     70  H   ASG d 306       9.788  42.994  39.405  0.00  0.00     0.078 H 
ATOM     71  H   ASG d 306      13.693  41.468  40.755  0.00  0.00     0.040 H 
ATOM     72  H   ASG d 306      14.575  41.752  39.313  0.00  0.00     0.040 H 
ATOM     73  H   ASG d 306      14.883  39.082  40.822  0.00  0.00     0.163 HD
ATOM     74  H   ASG d 306      16.408  37.664  40.877  0.00  0.00     0.040 H 
ATOM     75  H   ASG d 306      17.322  37.457  39.402  0.00  0.00     0.040 H 
ATOM     76  H   ASG d 306      16.166  36.241  39.891  0.00  0.00     0.040 H 
ATOM     77  H   ASG d 306      13.518  39.718  38.244  0.00  0.00     0.080 H 
ATOM     78  H   ASG d 306       8.737  40.358  39.196  0.00  0.00     0.209 HD
ATOM     79  H   ASG d 306      11.126  41.482  40.697  0.00  0.00     0.090 H 
ATOM     80  C5  BDP d 305      11.533  35.732  40.339  0.00  0.00     0.152 C 
ATOM     81  O6B BDP d 305      11.096  36.449  42.532  0.00  0.00    -0.646 OA
ATOM     82  C6  BDP d 305      11.997  36.133  41.732  0.00  0.00     0.206 C 
ATOM     83  O4  BDP d 305      12.125  37.866  39.378  0.00  0.00    -0.348 OA
ATOM     84  O3  BDP d 305      10.272  37.524  37.249  0.00  0.00    -0.390 OA
ATOM     85  C2  BDP d 305       9.470  35.532  38.300  0.00  0.00     0.110 C 
ATOM     86  C1  BDP d 305       9.863  34.359  39.210  0.00  0.00     0.160 C 
ATOM     87  C4  BDP d 305      11.106  36.939  39.472  0.00  0.00     0.103 C 
ATOM     88  O6A BDP d 305      13.241  36.099  41.898  0.00  0.00    -0.646 OA
ATOM     89  C3  BDP d 305      10.669  36.434  38.084  0.00  0.00     0.092 C 
ATOM     90  O2  BDP d 305       8.990  35.004  37.062  0.00  0.00    -0.388 OA
ATOM     91  O5  BDP d 305      10.386  34.839  40.486  0.00  0.00    -0.340 OA
ATOM     92  H   BDP d 305      12.355  35.260  39.843  0.00  0.00     0.104 H 
ATOM     93  H   BDP d 305      10.001  37.185  36.382  0.00  0.00     0.210 HD
ATOM     94  H   BDP d 305       8.698  36.118  38.753  0.00  0.00     0.094 H 
ATOM     95  H   BDP d 305      10.624  33.797  38.710  0.00  0.00     0.133 H 
ATOM     96  H   BDP d 305      10.279  37.434  39.935  0.00  0.00     0.092 H 
ATOM     97  H   BDP d 305      11.480  35.922  37.609  0.00  0.00     0.091 H 
ATOM     98  H   BDP d 305       9.686  34.471  36.646  0.00  0.00     0.210 HD
ATOM     99  O6B BDP d 301       5.330  30.798  53.844  0.00  0.00    -0.646 OA
ATOM    100  C6  BDP d 301       4.129  31.051  53.607  0.00  0.00     0.206 C 
ATOM    101  O6A BDP d 301       3.341  30.514  52.798  0.00  0.00    -0.646 OA
ATOM    102  O5  BDP d 301       3.838  31.956  55.821  0.00  0.00    -0.340 OA
ATOM    103  C5  BDP d 301       3.527  32.185  54.428  0.00  0.00     0.152 C 
ATOM    104  C3  BDP d 301       3.363  34.635  54.928  0.00  0.00     0.092 C 
ATOM    105  C1  BDP d 301       3.292  32.982  56.706  0.00  0.00     0.156 C 
ATOM    106  O1  BDP d 301       3.659  32.579  58.113  0.00  0.00    -0.368 OA
ATOM    107  C4  BDP d 301       3.999  33.573  53.997  0.00  0.00     0.103 C 
ATOM    108  C2  BDP d 301       3.792  34.354  56.361  0.00  0.00     0.110 C 
ATOM    109  O2  BDP d 301       3.213  35.288  57.269  0.00  0.00    -0.388 OA
ATOM    110  O4  BDP d 301       3.473  33.739  52.730  0.00  0.00    -0.348 OA
ATOM    111  O3  BDP d 301       3.810  35.940  54.557  0.00  0.00    -0.390 OA
ATOM    112  H   BDP d 301       2.470  32.178  54.264  0.00  0.00     0.104 H 
ATOM    113  H   BDP d 301       2.297  34.589  54.843  0.00  0.00     0.091 H 
ATOM    114  H   BDP d 301       2.230  33.043  56.598  0.00  0.00     0.133 H 
ATOM    115  H   BDP d 301       4.624  32.528  58.194  0.00  0.00     0.212 HD
ATOM    116  H   BDP d 301       5.064  33.673  54.029  0.00  0.00     0.092 H 
ATOM    117  H   BDP d 301       4.857  34.431  56.438  0.00  0.00     0.094 H 
ATOM    118  H   BDP d 301       2.246  35.234  57.215  0.00  0.00     0.210 HD
ATOM    119  H   BDP d 301       4.777  35.985  54.633  0.00  0.00     0.210 HD
ATOM    120  OSC ASG d 304       5.654  30.918  37.438  0.00  0.00    -0.572 OA
ATOM    121  O3  ASG d 304       8.742  33.537  39.455  0.00  0.00    -0.348 OA
ATOM    122  C5  ASG d 304       5.253  34.711  40.269  0.00  0.00     0.090 C 
ATOM    123  C6  ASG d 304       3.905  34.699  39.590  0.00  0.00     0.043 C 
ATOM    124  O4  ASG d 304       6.013  32.717  39.109  0.00  0.00    -0.246 OA
ATOM    125  C7  ASG d 304       9.169  32.393  43.170  0.00  0.00     0.214 C 
ATOM    126  C8  ASG d 304      10.483  32.674  43.864  0.00  0.00    -0.003 C 
ATOM    127  S   ASG d 304       5.895  32.341  37.562  0.00  0.00     0.252 S 
ATOM    128  OSB ASG d 304       4.797  33.075  36.958  0.00  0.00    -0.572 OA
ATOM    129  N   ASG d 304       8.788  33.412  42.310  0.00  0.00    -0.349 N 
ATOM    130  C4  ASG d 304       6.370  34.075  39.409  0.00  0.00     0.114 C 
ATOM    131  C3  ASG d 304       7.689  34.118  40.208  0.00  0.00     0.094 C 
ATOM    132  C1  ASG d 304       6.372  33.999  42.296  0.00  0.00     0.154 C 
ATOM    133  O7  ASG d 304       8.524  31.375  43.359  0.00  0.00    -0.274 OA
ATOM    134  O6  ASG d 304       3.027  35.651  40.193  0.00  0.00    -0.398 OA
ATOM    135  O5  ASG d 304       5.128  33.998  41.535  0.00  0.00    -0.349 OA
ATOM    136  C2  ASG d 304       7.519  33.354  41.511  0.00  0.00     0.087 C 
ATOM    137  OSA ASG d 304       7.130  32.691  36.880  0.00  0.00    -0.572 OA
ATOM    138  H   ASG d 304       5.541  35.730  40.424  0.00  0.00     0.090 H 
ATOM    139  H   ASG d 304       3.477  33.723  39.675  0.00  0.00     0.078 H 
ATOM    140  H   ASG d 304       4.037  34.957  38.560  0.00  0.00     0.078 H 
ATOM    141  H   ASG d 304      10.861  33.622  43.542  0.00  0.00     0.040 H 
ATOM    142  H   ASG d 304      11.187  31.908  43.619  0.00  0.00     0.040 H 
ATOM    143  H   ASG d 304      10.331  32.692  44.923  0.00  0.00     0.040 H 
ATOM    144  H   ASG d 304       9.371  34.200  42.220  0.00  0.00     0.163 HD
ATOM    145  H   ASG d 304       6.494  34.613  38.492  0.00  0.00     0.093 H 
ATOM    146  H   ASG d 304       7.934  35.138  40.416  0.00  0.00     0.091 H 
ATOM    147  H   ASG d 304       6.647  35.014  42.497  0.00  0.00     0.132 H 
ATOM    148  H   ASG d 304       2.900  35.426  41.128  0.00  0.00     0.209 HD
ATOM    149  H   ASG d 304       7.295  32.327  41.311  0.00  0.00     0.084 H 
ENDROOT
TORSDOF 38
ENDMDL
MODEL 24
REMARK VINA RESULT:      -6.6      6.544     11.534
REMARK  0 active torsions:
REMARK  status: ('A' for Active; 'I' for Inactive)
REMARK       I    between atoms: C6_2  and  C5_74 
REMARK       I    between atoms: C1_3  and  O4_24 
REMARK       I    between atoms: O6_4  and  C6_26 
REMARK       I    between atoms: C5_5  and  C6_12 
REMARK       I    between atoms: C4_6  and  O4_22 
REMARK       I    between atoms: C6_8  and  C5_90 
REMARK       I    between atoms: C6_8  and  O6_83 
REMARK       I    between atoms: O3_11  and  C3_60 
REMARK       I    between atoms: O3_11  and  C1_29 
REMARK       I    between atoms: C5_13  and  C6_18 
REMARK       I    between atoms: O4_14  and  C4_88 
REMARK       I    between atoms: O4_14  and  S_15 
REMARK       I    between atoms: C6_16  and  C5_28 
REMARK       I    between atoms: S_17  and  O4_22 
REMARK       I    between atoms: C6_18  and  O6_66 
REMARK       I    between atoms: O4_20  and  C4_46 
REMARK       I    between atoms: O4_20  and  C1_61 
REMARK       I    between atoms: O4_21  and  C4_54 
REMARK       I    between atoms: O4_21  and  S_40 
REMARK       I    between atoms: O4_24  and  C4_35 
REMARK       I    between atoms: O3_25  and  C3_48 
REMARK       I    between atoms: C6_26  and  C5_50 
REMARK       I    between atoms: C2_27  and  O2_55 
REMARK       I    between atoms: O3_31  and  C3_37 
REMARK       I    between atoms: C2_32  and  N_72 
REMARK       I    between atoms: C7_33  and  C8_39 
REMARK       I    between atoms: C7_33  and  N_52 
REMARK       I    between atoms: C1_34  and  O4_86 
REMARK       I    between atoms: C3_36  and  O3_87 
REMARK       I    between atoms: C2_47  and  O2_85 
REMARK       I    between atoms: N_52  and  C2_71 
REMARK       I    between atoms: C3_53  and  O3_81 
REMARK       I    between atoms: C1_56  and  O3_81 
REMARK       I    between atoms: C7_57  and  C8_64 
REMARK       I    between atoms: C7_57  and  N_63 
REMARK       I    between atoms: C8_58  and  C7_73 
REMARK       I    between atoms: C1_59  and  O1_68 
REMARK       I    between atoms: N_63  and  C2_67 
REMARK       I    between atoms: C4_69  and  O4_86 
REMARK       I    between atoms: N_72  and  C7_73 
REMARK       I    between atoms: C2_77  and  O2_82 
ROOT
ATOM      1  OSB ASG d 302      13.034  40.290  49.681  0.00  0.00    -0.572 OA
ATOM      2  O6  ASG d 302      15.128  36.434  49.437  0.00  0.00    -0.398 OA
ATOM      3  O4  ASG d 302      12.804  39.151  51.880  0.00  0.00    -0.246 OA
ATOM      4  S   ASG d 302      12.267  40.308  50.912  0.00  0.00     0.252 S 
ATOM      5  C6  ASG d 302      14.269  37.440  49.966  0.00  0.00     0.043 C 
ATOM      6  C2  ASG d 302      12.869  37.308  54.017  0.00  0.00     0.087 C 
ATOM      7  C1  ASG d 302      14.082  36.517  53.547  0.00  0.00     0.154 C 
ATOM      8  O5  ASG d 302      14.591  37.011  52.287  0.00  0.00    -0.349 OA
ATOM      9  C5  ASG d 302      13.604  36.957  51.230  0.00  0.00     0.090 C 
ATOM     10  O7  ASG d 302      12.399  38.729  56.477  0.00  0.00    -0.274 OA
ATOM     11  C3  ASG d 302      11.808  37.208  52.936  0.00  0.00     0.094 C 
ATOM     12  C8  ASG d 302      11.630  36.754  57.605  0.00  0.00    -0.003 C 
ATOM     13  OSA ASG d 302      10.862  40.099  50.613  0.00  0.00    -0.572 OA
ATOM     14  N   ASG d 302      12.356  36.738  55.298  0.00  0.00    -0.349 N 
ATOM     15  C7  ASG d 302      12.167  37.532  56.426  0.00  0.00     0.214 C 
ATOM     16  OSC ASG d 302      12.435  41.587  51.563  0.00  0.00    -0.572 OA
ATOM     17  O3  ASG d 302      10.731  37.976  53.338  0.00  0.00    -0.348 OA
ATOM     18  C4  ASG d 302      12.376  37.798  51.634  0.00  0.00     0.114 C 
ATOM     19  H   ASG d 302      15.547  36.761  48.626  0.00  0.00     0.209 HD
ATOM     20  H   ASG d 302      13.518  37.677  49.243  0.00  0.00     0.078 H 
ATOM     21  H   ASG d 302      14.852  38.308  50.193  0.00  0.00     0.078 H 
ATOM     22  H   ASG d 302      13.129  38.331  54.190  0.00  0.00     0.084 H 
ATOM     23  H   ASG d 302      13.772  35.501  53.421  0.00  0.00     0.132 H 
ATOM     24  H   ASG d 302      13.244  35.964  51.060  0.00  0.00     0.090 H 
ATOM     25  H   ASG d 302      11.515  36.191  52.778  0.00  0.00     0.091 H 
ATOM     26  H   ASG d 302      11.505  37.412  58.439  0.00  0.00     0.040 H 
ATOM     27  H   ASG d 302      12.320  35.977  57.864  0.00  0.00     0.040 H 
ATOM     28  H   ASG d 302      10.687  36.321  57.348  0.00  0.00     0.040 H 
ATOM     29  H   ASG d 302      12.147  35.777  55.347  0.00  0.00     0.163 HD
ATOM     30  H   ASG d 302      11.635  37.787  50.862  0.00  0.00     0.093 H 
ATOM     31  C6  BDP d 303       7.648  35.611  50.680  0.00  0.00     0.206 C 
ATOM     32  O4  BDP d 303       5.597  36.283  52.722  0.00  0.00    -0.348 OA
ATOM     33  O3  BDP d 303       6.153  38.280  54.651  0.00  0.00    -0.390 OA
ATOM     34  C3  BDP d 303       7.165  37.420  54.102  0.00  0.00     0.092 C 
ATOM     35  O6B BDP d 303       7.304  36.492  49.867  0.00  0.00    -0.646 OA
ATOM     36  C4  BDP d 303       6.785  36.997  52.676  0.00  0.00     0.103 C 
ATOM     37  C2  BDP d 303       8.475  38.181  54.035  0.00  0.00     0.110 C 
ATOM     38  O6A BDP d 303       7.814  34.382  50.504  0.00  0.00    -0.646 OA
ATOM     39  C1  BDP d 303       9.540  37.277  53.435  0.00  0.00     0.160 C 
ATOM     40  C5  BDP d 303       7.907  36.086  52.108  0.00  0.00     0.152 C 
ATOM     41  O5  BDP d 303       9.163  36.821  52.109  0.00  0.00    -0.340 OA
ATOM     42  O2  BDP d 303       8.889  38.577  55.346  0.00  0.00    -0.388 OA
ATOM     43  H   BDP d 303       6.403  38.540  55.551  0.00  0.00     0.210 HD
ATOM     44  H   BDP d 303       7.258  36.554  54.723  0.00  0.00     0.091 H 
ATOM     45  H   BDP d 303       6.667  37.859  52.053  0.00  0.00     0.092 H 
ATOM     46  H   BDP d 303       8.341  39.055  53.432  0.00  0.00     0.094 H 
ATOM     47  H   BDP d 303       9.648  36.426  54.074  0.00  0.00     0.133 H 
ATOM     48  H   BDP d 303       7.939  35.222  52.737  0.00  0.00     0.104 H 
ATOM     49  H   BDP d 303       9.014  37.789  55.898  0.00  0.00     0.210 HD
ATOM     50  C1  ASG d 306       2.165  34.367  44.403  0.00  0.00     0.151 C 
ATOM     51  C4  ASG d 306       2.001  35.560  41.729  0.00  0.00     0.089 C 
ATOM     52  C6  ASG d 306       2.403  37.768  42.924  0.00  0.00     0.043 C 
ATOM     53  S   ASG d 306      -0.061  36.337  40.394  0.00  0.00     0.252 S 
ATOM     54  O4  ASG d 306       0.592  35.795  41.736  0.00  0.00    -0.249 OA
ATOM     55  OSB ASG d 306      -1.492  36.486  40.593  0.00  0.00    -0.572 OA
ATOM     56  OSA ASG d 306       0.518  37.628  40.068  0.00  0.00    -0.572 OA
ATOM     57  C3  ASG d 306       2.241  34.010  41.828  0.00  0.00    -0.014 C 
ATOM     58  C7  ASG d 306       0.748  31.321  43.980  0.00  0.00     0.214 C 
ATOM     59  N   ASG d 306       1.797  32.125  43.529  0.00  0.00    -0.352 N 
ATOM     60  C8  ASG d 306       1.169  29.889  44.202  0.00  0.00    -0.003 C 
ATOM     61  C2  ASG d 306       1.595  33.584  43.259  0.00  0.00     0.062 C 
ATOM     62  O5  ASG d 306       1.990  35.788  44.194  0.00  0.00    -0.349 OA
ATOM     63  O6  ASG d 306       2.883  38.384  44.118  0.00  0.00    -0.398 OA
ATOM     64  O7  ASG d 306      -0.396  31.717  44.187  0.00  0.00    -0.274 OA
ATOM     65  OSC ASG d 306       0.190  35.406  39.317  0.00  0.00    -0.572 OA
ATOM     66  C5  ASG d 306       2.620  36.272  42.968  0.00  0.00     0.088 C 
ATOM     67  H   ASG d 306       3.215  34.177  44.477  0.00  0.00     0.132 H 
ATOM     68  H   ASG d 306       2.453  35.937  40.835  0.00  0.00     0.089 H 
ATOM     69  H   ASG d 306       1.356  37.969  42.823  0.00  0.00     0.078 H 
ATOM     70  H   ASG d 306       2.941  38.169  42.091  0.00  0.00     0.078 H 
ATOM     71  H   ASG d 306       3.287  33.788  41.805  0.00  0.00     0.040 H 
ATOM     72  H   ASG d 306       1.800  33.479  41.011  0.00  0.00     0.040 H 
ATOM     73  H   ASG d 306       2.685  31.726  43.386  0.00  0.00     0.163 HD
ATOM     74  H   ASG d 306       2.205  29.781  43.956  0.00  0.00     0.040 H 
ATOM     75  H   ASG d 306       0.585  29.245  43.579  0.00  0.00     0.040 H 
ATOM     76  H   ASG d 306       1.016  29.628  45.228  0.00  0.00     0.040 H 
ATOM     77  H   ASG d 306       0.550  33.802  43.186  0.00  0.00     0.080 H 
ATOM     78  H   ASG d 306       2.403  38.028  44.882  0.00  0.00     0.209 HD
ATOM     79  H   ASG d 306       3.668  36.055  42.952  0.00  0.00     0.090 H 
ATOM     80  C5  BDP d 305       2.133  33.361  47.825  0.00  0.00     0.152 C 
ATOM     81  O6B BDP d 305       4.465  33.523  47.606  0.00  0.00    -0.646 OA
ATOM     82  C6  BDP d 305       3.478  32.792  47.397  0.00  0.00     0.206 C 
ATOM     83  O4  BDP d 305       1.520  33.971  45.570  0.00  0.00    -0.348 OA
ATOM     84  O3  BDP d 305      -0.290  35.955  46.502  0.00  0.00    -0.390 OA
ATOM     85  C2  BDP d 305       0.473  35.568  48.735  0.00  0.00     0.110 C 
ATOM     86  C1  BDP d 305       1.057  34.512  49.686  0.00  0.00     0.160 C 
ATOM     87  C4  BDP d 305       1.603  34.449  46.863  0.00  0.00     0.103 C 
ATOM     88  O6A BDP d 305       3.421  31.649  46.879  0.00  0.00    -0.646 OA
ATOM     89  C3  BDP d 305       0.237  34.949  47.371  0.00  0.00     0.092 C 
ATOM     90  O2  BDP d 305      -0.745  36.060  49.298  0.00  0.00    -0.388 OA
ATOM     91  O5  BDP d 305       2.294  33.953  49.150  0.00  0.00    -0.340 OA
ATOM     92  H   BDP d 305       1.423  32.560  47.820  0.00  0.00     0.104 H 
ATOM     93  H   BDP d 305      -1.148  36.256  46.840  0.00  0.00     0.210 HD
ATOM     94  H   BDP d 305       1.155  36.382  48.611  0.00  0.00     0.094 H 
ATOM     95  H   BDP d 305       0.335  33.729  49.789  0.00  0.00     0.133 H 
ATOM     96  H   BDP d 305       2.287  35.271  46.846  0.00  0.00     0.092 H 
ATOM     97  H   BDP d 305      -0.458  34.137  47.410  0.00  0.00     0.091 H 
ATOM     98  H   BDP d 305      -1.368  35.326  49.413  0.00  0.00     0.210 HD
ATOM     99  O6B BDP d 301      15.269  33.493  56.347  0.00  0.00    -0.646 OA
ATOM    100  C6  BDP d 301      15.292  34.708  56.645  0.00  0.00     0.206 C 
ATOM    101  O6A BDP d 301      14.539  35.363  57.398  0.00  0.00    -0.646 OA
ATOM    102  O5  BDP d 301      17.656  34.816  56.195  0.00  0.00    -0.340 OA
ATOM    103  C5  BDP d 301      16.408  35.517  55.995  0.00  0.00     0.152 C 
ATOM    104  C3  BDP d 301      17.396  36.573  53.949  0.00  0.00     0.092 C 
ATOM    105  C1  BDP d 301      18.804  35.515  55.621  0.00  0.00     0.156 C 
ATOM    106  O1  BDP d 301      20.023  34.689  55.951  0.00  0.00    -0.368 OA
ATOM    107  C4  BDP d 301      16.182  35.791  54.509  0.00  0.00     0.103 C 
ATOM    108  C2  BDP d 301      18.653  35.738  54.145  0.00  0.00     0.110 C 
ATOM    109  O2  BDP d 301      19.810  36.421  53.671  0.00  0.00    -0.388 OA
ATOM    110  O4  BDP d 301      15.080  36.623  54.475  0.00  0.00    -0.348 OA
ATOM    111  O3  BDP d 301      17.217  36.820  52.553  0.00  0.00    -0.390 OA
ATOM    112  H   BDP d 301      16.427  36.478  56.464  0.00  0.00     0.104 H 
ATOM    113  H   BDP d 301      17.485  37.506  54.465  0.00  0.00     0.091 H 
ATOM    114  H   BDP d 301      18.891  36.497  56.038  0.00  0.00     0.133 H 
ATOM    115  H   BDP d 301      19.928  33.804  55.567  0.00  0.00     0.212 HD
ATOM    116  H   BDP d 301      16.052  34.893  53.941  0.00  0.00     0.092 H 
ATOM    117  H   BDP d 301      18.562  34.820  53.602  0.00  0.00     0.094 H 
ATOM    118  H   BDP d 301      19.911  37.258  54.151  0.00  0.00     0.210 HD
ATOM    119  H   BDP d 301      17.135  35.975  52.083  0.00  0.00     0.210 HD
ATOM    120  OSC ASG d 304      -0.613  37.168  54.467  0.00  0.00    -0.572 OA
ATOM    121  O3  ASG d 304       1.323  35.089  50.947  0.00  0.00    -0.348 OA
ATOM    122  C5  ASG d 304       2.928  38.443  51.569  0.00  0.00     0.090 C 
ATOM    123  C6  ASG d 304       2.498  39.779  52.124  0.00  0.00     0.043 C 
ATOM    124  O4  ASG d 304       1.290  37.214  52.876  0.00  0.00    -0.246 OA
ATOM    125  C7  ASG d 304       4.617  33.348  52.135  0.00  0.00     0.214 C 
ATOM    126  C8  ASG d 304       5.120  32.152  51.359  0.00  0.00    -0.003 C 
ATOM    127  S   ASG d 304      -0.257  37.527  53.109  0.00  0.00     0.252 S 
ATOM    128  OSB ASG d 304      -0.512  38.941  52.897  0.00  0.00    -0.572 OA
ATOM    129  N   ASG d 304       4.049  34.316  51.320  0.00  0.00    -0.349 N 
ATOM    130  C4  ASG d 304       1.785  37.402  51.541  0.00  0.00     0.114 C 
ATOM    131  C3  ASG d 304       2.342  36.075  50.985  0.00  0.00     0.094 C 
ATOM    132  C1  ASG d 304       4.559  36.681  51.894  0.00  0.00     0.154 C 
ATOM    133  O7  ASG d 304       4.710  33.439  53.348  0.00  0.00    -0.274 OA
ATOM    134  O6  ASG d 304       3.414  40.805  51.739  0.00  0.00    -0.398 OA
ATOM    135  O5  ASG d 304       4.034  37.950  52.384  0.00  0.00    -0.349 OA
ATOM    136  C2  ASG d 304       3.481  35.593  51.867  0.00  0.00     0.087 C 
ATOM    137  OSA ASG d 304      -1.057  36.756  52.171  0.00  0.00    -0.572 OA
ATOM    138  H   ASG d 304       3.228  38.583  50.552  0.00  0.00     0.090 H 
ATOM    139  H   ASG d 304       2.463  39.722  53.191  0.00  0.00     0.078 H 
ATOM    140  H   ASG d 304       1.531  40.017  51.733  0.00  0.00     0.078 H 
ATOM    141  H   ASG d 304       4.930  32.297  50.316  0.00  0.00     0.040 H 
ATOM    142  H   ASG d 304       4.615  31.271  51.694  0.00  0.00     0.040 H 
ATOM    143  H   ASG d 304       6.173  32.040  51.517  0.00  0.00     0.040 H 
ATOM    144  H   ASG d 304       4.018  34.159  50.348  0.00  0.00     0.163 HD
ATOM    145  H   ASG d 304       0.983  37.739  50.917  0.00  0.00     0.093 H 
ATOM    146  H   ASG d 304       2.700  36.242  49.990  0.00  0.00     0.091 H 
ATOM    147  H   ASG d 304       4.904  36.820  50.890  0.00  0.00     0.132 H 
ATOM    148  H   ASG d 304       4.296  40.598  52.089  0.00  0.00     0.209 HD
ATOM    149  H   ASG d 304       3.125  35.403  52.859  0.00  0.00     0.084 H 
ENDROOT
TORSDOF 38
ENDMDL
MODEL 25
REMARK VINA RESULT:      -6.5      5.718     10.146
REMARK  0 active torsions:
REMARK  status: ('A' for Active; 'I' for Inactive)
REMARK       I    between atoms: C6_2  and  C5_74 
REMARK       I    between atoms: C1_3  and  O4_24 
REMARK       I    between atoms: O6_4  and  C6_26 
REMARK       I    between atoms: C5_5  and  C6_12 
REMARK       I    between atoms: C4_6  and  O4_22 
REMARK       I    between atoms: C6_8  and  C5_90 
REMARK       I    between atoms: C6_8  and  O6_83 
REMARK       I    between atoms: O3_11  and  C3_60 
REMARK       I    between atoms: O3_11  and  C1_29 
REMARK       I    between atoms: C5_13  and  C6_18 
REMARK       I    between atoms: O4_14  and  C4_88 
REMARK       I    between atoms: O4_14  and  S_15 
REMARK       I    between atoms: C6_16  and  C5_28 
REMARK       I    between atoms: S_17  and  O4_22 
REMARK       I    between atoms: C6_18  and  O6_66 
REMARK       I    between atoms: O4_20  and  C4_46 
REMARK       I    between atoms: O4_20  and  C1_61 
REMARK       I    between atoms: O4_21  and  C4_54 
REMARK       I    between atoms: O4_21  and  S_40 
REMARK       I    between atoms: O4_24  and  C4_35 
REMARK       I    between atoms: O3_25  and  C3_48 
REMARK       I    between atoms: C6_26  and  C5_50 
REMARK       I    between atoms: C2_27  and  O2_55 
REMARK       I    between atoms: O3_31  and  C3_37 
REMARK       I    between atoms: C2_32  and  N_72 
REMARK       I    between atoms: C7_33  and  C8_39 
REMARK       I    between atoms: C7_33  and  N_52 
REMARK       I    between atoms: C1_34  and  O4_86 
REMARK       I    between atoms: C3_36  and  O3_87 
REMARK       I    between atoms: C2_47  and  O2_85 
REMARK       I    between atoms: N_52  and  C2_71 
REMARK       I    between atoms: C3_53  and  O3_81 
REMARK       I    between atoms: C1_56  and  O3_81 
REMARK       I    between atoms: C7_57  and  C8_64 
REMARK       I    between atoms: C7_57  and  N_63 
REMARK       I    between atoms: C8_58  and  C7_73 
REMARK       I    between atoms: C1_59  and  O1_68 
REMARK       I    between atoms: N_63  and  C2_67 
REMARK       I    between atoms: C4_69  and  O4_86 
REMARK       I    between atoms: N_72  and  C7_73 
REMARK       I    between atoms: C2_77  and  O2_82 
ROOT
ATOM      1  OSB ASG d 302      15.756  35.728  47.466  0.00  0.00    -0.572 OA
ATOM      2  O6  ASG d 302      16.202  31.550  48.753  0.00  0.00    -0.398 OA
ATOM      3  O4  ASG d 302      15.512  35.657  49.939  0.00  0.00    -0.246 OA
ATOM      4  S   ASG d 302      15.278  36.498  48.597  0.00  0.00     0.252 S 
ATOM      5  C6  ASG d 302      15.881  32.934  48.849  0.00  0.00     0.043 C 
ATOM      6  C2  ASG d 302      15.265  34.852  52.634  0.00  0.00     0.087 C 
ATOM      7  C1  ASG d 302      15.998  33.525  52.502  0.00  0.00     0.154 C 
ATOM      8  O5  ASG d 302      16.424  33.278  51.142  0.00  0.00    -0.349 OA
ATOM      9  C5  ASG d 302      15.318  33.256  50.209  0.00  0.00     0.090 C 
ATOM     10  O7  ASG d 302      15.792  37.121  54.327  0.00  0.00    -0.274 OA
ATOM     11  C3  ASG d 302      14.070  34.813  51.699  0.00  0.00     0.094 C 
ATOM     12  C8  ASG d 302      14.559  36.183  56.162  0.00  0.00    -0.003 C 
ATOM     13  OSA ASG d 302      13.867  36.789  48.427  0.00  0.00    -0.572 OA
ATOM     14  N   ASG d 302      14.811  35.044  54.044  0.00  0.00    -0.349 N 
ATOM     15  C7  ASG d 302      15.129  36.193  54.763  0.00  0.00     0.214 C 
ATOM     16  OSC ASG d 302      16.018  37.737  48.680  0.00  0.00    -0.572 OA
ATOM     17  O3  ASG d 302      13.441  36.041  51.776  0.00  0.00    -0.348 OA
ATOM     18  C4  ASG d 302      14.578  34.608  50.261  0.00  0.00     0.114 C 
ATOM     19  H   ASG d 302      16.562  31.361  47.873  0.00  0.00     0.209 HD
ATOM     20  H   ASG d 302      15.157  33.180  48.101  0.00  0.00     0.078 H 
ATOM     21  H   ASG d 302      16.774  33.506  48.701  0.00  0.00     0.078 H 
ATOM     22  H   ASG d 302      15.910  35.666  52.380  0.00  0.00     0.084 H 
ATOM     23  H   ASG d 302      15.318  32.753  52.797  0.00  0.00     0.132 H 
ATOM     24  H   ASG d 302      14.593  32.508  50.456  0.00  0.00     0.090 H 
ATOM     25  H   ASG d 302      13.400  34.022  51.964  0.00  0.00     0.091 H 
ATOM     26  H   ASG d 302      14.833  37.086  56.665  0.00  0.00     0.040 H 
ATOM     27  H   ASG d 302      14.947  35.343  56.700  0.00  0.00     0.040 H 
ATOM     28  H   ASG d 302      13.492  36.112  56.113  0.00  0.00     0.040 H 
ATOM     29  H   ASG d 302      14.274  34.341  54.476  0.00  0.00     0.163 HD
ATOM     30  H   ASG d 302      13.762  34.623  49.569  0.00  0.00     0.093 H 
ATOM     31  C6  BDP d 303       9.289  34.359  50.329  0.00  0.00     0.206 C 
ATOM     32  O4  BDP d 303       8.022  36.495  51.961  0.00  0.00    -0.348 OA
ATOM     33  O3  BDP d 303       9.604  38.637  52.923  0.00  0.00    -0.390 OA
ATOM     34  C3  BDP d 303      10.115  37.306  52.749  0.00  0.00     0.092 C 
ATOM     35  O6B BDP d 303       9.157  34.947  49.236  0.00  0.00    -0.646 OA
ATOM     36  C4  BDP d 303       9.362  36.593  51.617  0.00  0.00     0.103 C 
ATOM     37  C2  BDP d 303      11.580  37.385  52.365  0.00  0.00     0.110 C 
ATOM     38  O6A BDP d 303       8.955  33.197  50.656  0.00  0.00    -0.646 OA
ATOM     39  C1  BDP d 303      12.113  35.976  52.161  0.00  0.00     0.160 C 
ATOM     40  C5  BDP d 303       9.950  35.166  51.444  0.00  0.00     0.152 C 
ATOM     41  O5  BDP d 303      11.368  35.270  51.133  0.00  0.00    -0.340 OA
ATOM     42  O2  BDP d 303      12.334  38.020  53.402  0.00  0.00    -0.388 OA
ATOM     43  H   BDP d 303      10.086  39.077  53.640  0.00  0.00     0.210 HD
ATOM     44  H   BDP d 303       9.989  36.765  53.663  0.00  0.00     0.091 H 
ATOM     45  H   BDP d 303       9.464  37.141  50.703  0.00  0.00     0.092 H 
ATOM     46  H   BDP d 303      11.674  37.956  51.464  0.00  0.00     0.094 H 
ATOM     47  H   BDP d 303      12.010  35.447  53.085  0.00  0.00     0.133 H 
ATOM     48  H   BDP d 303       9.771  34.654  52.366  0.00  0.00     0.104 H 
ATOM     49  H   BDP d 303      12.253  37.506  54.221  0.00  0.00     0.210 HD
ATOM     50  C1  ASG d 306       2.724  33.297  45.152  0.00  0.00     0.151 C 
ATOM     51  C4  ASG d 306       2.547  33.404  42.227  0.00  0.00     0.089 C 
ATOM     52  C6  ASG d 306       3.938  35.523  42.434  0.00  0.00     0.043 C 
ATOM     53  S   ASG d 306       0.717  34.418  40.722  0.00  0.00     0.252 S 
ATOM     54  O4  ASG d 306       1.349  34.179  42.159  0.00  0.00    -0.249 OA
ATOM     55  OSB ASG d 306      -0.498  35.199  40.866  0.00  0.00    -0.572 OA
ATOM     56  OSA ASG d 306       1.665  35.147  39.899  0.00  0.00    -0.572 OA
ATOM     57  C3  ASG d 306       2.211  32.041  42.934  0.00  0.00    -0.014 C 
ATOM     58  C7  ASG d 306       0.233  31.168  46.003  0.00  0.00     0.214 C 
ATOM     59  N   ASG d 306       1.408  31.253  45.252  0.00  0.00    -0.352 N 
ATOM     60  C8  ASG d 306       0.128  29.875  46.772  0.00  0.00    -0.003 C 
ATOM     61  C2  ASG d 306       1.715  32.462  44.425  0.00  0.00     0.062 C 
ATOM     62  O5  ASG d 306       3.053  34.486  44.395  0.00  0.00    -0.349 OA
ATOM     63  O6  ASG d 306       4.813  36.272  43.275  0.00  0.00    -0.398 OA
ATOM     64  O7  ASG d 306      -0.629  32.041  46.050  0.00  0.00    -0.274 OA
ATOM     65  OSC ASG d 306       0.414  33.147  40.104  0.00  0.00    -0.572 OA
ATOM     66  C5  ASG d 306       3.591  34.194  43.069  0.00  0.00     0.088 C 
ATOM     67  H   ASG d 306       3.626  32.736  45.281  0.00  0.00     0.132 H 
ATOM     68  H   ASG d 306       2.942  33.214  41.251  0.00  0.00     0.089 H 
ATOM     69  H   ASG d 306       3.038  36.081  42.276  0.00  0.00     0.078 H 
ATOM     70  H   ASG d 306       4.431  35.340  41.502  0.00  0.00     0.078 H 
ATOM     71  H   ASG d 306       3.080  31.419  42.987  0.00  0.00     0.040 H 
ATOM     72  H   ASG d 306       1.469  31.482  42.403  0.00  0.00     0.040 H 
ATOM     73  H   ASG d 306       2.047  30.504  45.268  0.00  0.00     0.163 HD
ATOM     74  H   ASG d 306       0.990  29.273  46.576  0.00  0.00     0.040 H 
ATOM     75  H   ASG d 306      -0.752  29.349  46.467  0.00  0.00     0.040 H 
ATOM     76  H   ASG d 306       0.071  30.087  47.819  0.00  0.00     0.040 H 
ATOM     77  H   ASG d 306       0.829  33.045  44.286  0.00  0.00     0.080 H 
ATOM     78  H   ASG d 306       4.377  36.445  44.124  0.00  0.00     0.209 HD
ATOM     79  H   ASG d 306       4.465  33.578  43.126  0.00  0.00     0.090 H 
ATOM     80  C5  BDP d 305       2.924  33.697  48.691  0.00  0.00     0.152 C 
ATOM     81  O6B BDP d 305       5.074  32.802  48.392  0.00  0.00    -0.646 OA
ATOM     82  C6  BDP d 305       3.867  32.516  48.507  0.00  0.00     0.206 C 
ATOM     83  O4  BDP d 305       2.194  33.648  46.389  0.00  0.00    -0.348 OA
ATOM     84  O3  BDP d 305       1.438  36.387  46.477  0.00  0.00    -0.390 OA
ATOM     85  C2  BDP d 305       2.383  36.553  48.666  0.00  0.00     0.110 C 
ATOM     86  C1  BDP d 305       2.693  35.772  49.952  0.00  0.00     0.160 C 
ATOM     87  C4  BDP d 305       2.673  34.481  47.382  0.00  0.00     0.103 C 
ATOM     88  O6A BDP d 305       3.302  31.395  48.490  0.00  0.00    -0.646 OA
ATOM     89  C3  BDP d 305       1.700  35.640  47.667  0.00  0.00     0.092 C 
ATOM     90  O2  BDP d 305       1.551  37.666  49.003  0.00  0.00    -0.388 OA
ATOM     91  O5  BDP d 305       3.522  34.604  49.666  0.00  0.00    -0.340 OA
ATOM     92  H   BDP d 305       1.980  33.313  49.017  0.00  0.00     0.104 H 
ATOM     93  H   BDP d 305       0.824  37.111  46.678  0.00  0.00     0.210 HD
ATOM     94  H   BDP d 305       3.284  36.914  48.218  0.00  0.00     0.094 H 
ATOM     95  H   BDP d 305       1.763  35.446  50.370  0.00  0.00     0.133 H 
ATOM     96  H   BDP d 305       3.598  34.885  47.027  0.00  0.00     0.092 H 
ATOM     97  H   BDP d 305       0.772  35.257  48.037  0.00  0.00     0.091 H 
ATOM     98  H   BDP d 305       0.731  37.346  49.411  0.00  0.00     0.210 HD
ATOM     99  O6B BDP d 301      16.456  31.510  56.261  0.00  0.00    -0.646 OA
ATOM    100  C6  BDP d 301      16.978  32.626  56.047  0.00  0.00     0.206 C 
ATOM    101  O6A BDP d 301      16.664  33.754  56.486  0.00  0.00    -0.646 OA
ATOM    102  O5  BDP d 301      19.097  31.590  55.557  0.00  0.00    -0.340 OA
ATOM    103  C5  BDP d 301      18.181  32.616  55.112  0.00  0.00     0.152 C 
ATOM    104  C3  BDP d 301      19.114  32.363  52.800  0.00  0.00     0.092 C 
ATOM    105  C1  BDP d 301      20.301  31.502  54.736  0.00  0.00     0.156 C 
ATOM    106  O1  BDP d 301      21.167  30.430  55.351  0.00  0.00    -0.368 OA
ATOM    107  C4  BDP d 301      17.815  32.403  53.644  0.00  0.00     0.103 C 
ATOM    108  C2  BDP d 301      19.987  31.219  53.296  0.00  0.00     0.110 C 
ATOM    109  O2  BDP d 301      21.213  31.150  52.571  0.00  0.00    -0.388 OA
ATOM    110  O4  BDP d 301      17.110  33.539  53.296  0.00  0.00    -0.348 OA
ATOM    111  O3  BDP d 301      18.796  32.141  51.425  0.00  0.00    -0.390 OA
ATOM    112  H   BDP d 301      18.635  33.583  55.158  0.00  0.00     0.104 H 
ATOM    113  H   BDP d 301      19.630  33.295  52.899  0.00  0.00     0.091 H 
ATOM    114  H   BDP d 301      20.816  32.440  54.724  0.00  0.00     0.133 H 
ATOM    115  H   BDP d 301      20.687  29.588  55.354  0.00  0.00     0.212 HD
ATOM    116  H   BDP d 301      17.266  31.499  53.484  0.00  0.00     0.092 H 
ATOM    117  H   BDP d 301      19.471  30.291  53.166  0.00  0.00     0.094 H 
ATOM    118  H   BDP d 301      21.698  31.983  52.676  0.00  0.00     0.210 HD
ATOM    119  H   BDP d 301      18.328  31.297  51.333  0.00  0.00     0.210 HD
ATOM    120  OSC ASG d 304       2.986  40.401  53.296  0.00  0.00    -0.572 OA
ATOM    121  O3  ASG d 304       3.370  36.600  50.873  0.00  0.00    -0.348 OA
ATOM    122  C5  ASG d 304       6.181  38.983  50.080  0.00  0.00     0.090 C 
ATOM    123  C6  ASG d 304       6.378  40.479  50.060  0.00  0.00     0.043 C 
ATOM    124  O4  ASG d 304       4.462  39.090  51.792  0.00  0.00    -0.246 OA
ATOM    125  C7  ASG d 304       5.942  34.221  52.611  0.00  0.00     0.214 C 
ATOM    126  C8  ASG d 304       5.824  32.734  52.370  0.00  0.00    -0.003 C 
ATOM    127  S   ASG d 304       3.206  40.069  51.903  0.00  0.00     0.252 S 
ATOM    128  OSB ASG d 304       3.457  41.283  51.147  0.00  0.00    -0.572 OA
ATOM    129  N   ASG d 304       5.638  34.972  51.485  0.00  0.00    -0.349 N 
ATOM    130  C4  ASG d 304       4.748  38.566  50.486  0.00  0.00     0.114 C 
ATOM    131  C3  ASG d 304       4.670  37.025  50.499  0.00  0.00     0.094 C 
ATOM    132  C1  ASG d 304       7.076  36.955  51.058  0.00  0.00     0.154 C 
ATOM    133  O7  ASG d 304       6.273  34.696  53.685  0.00  0.00    -0.274 OA
ATOM    134  O6  ASG d 304       7.526  40.827  49.284  0.00  0.00    -0.398 OA
ATOM    135  O5  ASG d 304       7.151  38.410  51.007  0.00  0.00    -0.349 OA
ATOM    136  C2  ASG d 304       5.686  36.473  51.484  0.00  0.00     0.087 C 
ATOM    137  OSA ASG d 304       2.027  39.411  51.363  0.00  0.00    -0.572 OA
ATOM    138  H   ASG d 304       6.328  38.613  49.087  0.00  0.00     0.090 H 
ATOM    139  H   ASG d 304       6.513  40.829  51.062  0.00  0.00     0.078 H 
ATOM    140  H   ASG d 304       5.516  40.933  49.621  0.00  0.00     0.078 H 
ATOM    141  H   ASG d 304       5.521  32.558  51.359  0.00  0.00     0.040 H 
ATOM    142  H   ASG d 304       5.096  32.321  53.037  0.00  0.00     0.040 H 
ATOM    143  H   ASG d 304       6.771  32.267  52.545  0.00  0.00     0.040 H 
ATOM    144  H   ASG d 304       5.381  34.505  50.658  0.00  0.00     0.163 HD
ATOM    145  H   ASG d 304       4.031  38.952  49.792  0.00  0.00     0.093 H 
ATOM    146  H   ASG d 304       4.884  36.661  49.515  0.00  0.00     0.091 H 
ATOM    147  H   ASG d 304       7.267  36.570  50.078  0.00  0.00     0.132 H 
ATOM    148  H   ASG d 304       8.316  40.420  49.674  0.00  0.00     0.209 HD
ATOM    149  H   ASG d 304       5.465  36.815  52.474  0.00  0.00     0.084 H 
ENDROOT
TORSDOF 38
ENDMDL
MODEL 26
REMARK VINA RESULT:      -6.5      5.801     12.049
REMARK  0 active torsions:
REMARK  status: ('A' for Active; 'I' for Inactive)
REMARK       I    between atoms: C6_2  and  C5_74 
REMARK       I    between atoms: C1_3  and  O4_24 
REMARK       I    between atoms: O6_4  and  C6_26 
REMARK       I    between atoms: C5_5  and  C6_12 
REMARK       I    between atoms: C4_6  and  O4_22 
REMARK       I    between atoms: C6_8  and  C5_90 
REMARK       I    between atoms: C6_8  and  O6_83 
REMARK       I    between atoms: O3_11  and  C3_60 
REMARK       I    between atoms: O3_11  and  C1_29 
REMARK       I    between atoms: C5_13  and  C6_18 
REMARK       I    between atoms: O4_14  and  C4_88 
REMARK       I    between atoms: O4_14  and  S_15 
REMARK       I    between atoms: C6_16  and  C5_28 
REMARK       I    between atoms: S_17  and  O4_22 
REMARK       I    between atoms: C6_18  and  O6_66 
REMARK       I    between atoms: O4_20  and  C4_46 
REMARK       I    between atoms: O4_20  and  C1_61 
REMARK       I    between atoms: O4_21  and  C4_54 
REMARK       I    between atoms: O4_21  and  S_40 
REMARK       I    between atoms: O4_24  and  C4_35 
REMARK       I    between atoms: O3_25  and  C3_48 
REMARK       I    between atoms: C6_26  and  C5_50 
REMARK       I    between atoms: C2_27  and  O2_55 
REMARK       I    between atoms: O3_31  and  C3_37 
REMARK       I    between atoms: C2_32  and  N_72 
REMARK       I    between atoms: C7_33  and  C8_39 
REMARK       I    between atoms: C7_33  and  N_52 
REMARK       I    between atoms: C1_34  and  O4_86 
REMARK       I    between atoms: C3_36  and  O3_87 
REMARK       I    between atoms: C2_47  and  O2_85 
REMARK       I    between atoms: N_52  and  C2_71 
REMARK       I    between atoms: C3_53  and  O3_81 
REMARK       I    between atoms: C1_56  and  O3_81 
REMARK       I    between atoms: C7_57  and  C8_64 
REMARK       I    between atoms: C7_57  and  N_63 
REMARK       I    between atoms: C8_58  and  C7_73 
REMARK       I    between atoms: C1_59  and  O1_68 
REMARK       I    between atoms: N_63  and  C2_67 
REMARK       I    between atoms: C4_69  and  O4_86 
REMARK       I    between atoms: N_72  and  C7_73 
REMARK       I    between atoms: C2_77  and  O2_82 
ROOT
ATOM      1  OSB ASG d 302      14.607  39.412  52.142  0.00  0.00    -0.572 OA
ATOM      2  O6  ASG d 302      18.766  38.160  51.479  0.00  0.00    -0.398 OA
ATOM      3  O4  ASG d 302      14.781  36.998  52.713  0.00  0.00    -0.246 OA
ATOM      4  S   ASG d 302      13.809  38.223  52.367  0.00  0.00     0.252 S 
ATOM      5  C6  ASG d 302      17.368  38.025  51.718  0.00  0.00     0.043 C 
ATOM      6  C2  ASG d 302      15.658  34.342  53.095  0.00  0.00     0.087 C 
ATOM      7  C1  ASG d 302      17.143  34.651  53.225  0.00  0.00     0.154 C 
ATOM      8  O5  ASG d 302      17.415  36.062  53.066  0.00  0.00    -0.349 OA
ATOM      9  C5  ASG d 302      16.979  36.571  51.784  0.00  0.00     0.090 C 
ATOM     10  O7  ASG d 302      13.853  33.027  54.913  0.00  0.00    -0.274 OA
ATOM     11  C3  ASG d 302      15.206  34.823  51.728  0.00  0.00     0.094 C 
ATOM     12  C8  ASG d 302      14.445  30.845  54.102  0.00  0.00    -0.003 C 
ATOM     13  OSA ASG d 302      13.033  37.925  51.177  0.00  0.00    -0.572 OA
ATOM     14  N   ASG d 302      15.431  32.872  53.227  0.00  0.00    -0.349 N 
ATOM     15  C7  ASG d 302      14.524  32.353  54.146  0.00  0.00     0.214 C 
ATOM     16  OSC ASG d 302      12.915  38.447  53.480  0.00  0.00    -0.572 OA
ATOM     17  O3  ASG d 302      13.846  34.596  51.635  0.00  0.00    -0.348 OA
ATOM     18  C4  ASG d 302      15.462  36.336  51.630  0.00  0.00     0.114 C 
ATOM     19  H   ASG d 302      18.999  39.100  51.440  0.00  0.00     0.209 HD
ATOM     20  H   ASG d 302      16.828  38.498  50.925  0.00  0.00     0.078 H 
ATOM     21  H   ASG d 302      17.133  38.488  52.654  0.00  0.00     0.078 H 
ATOM     22  H   ASG d 302      15.101  34.834  53.865  0.00  0.00     0.084 H 
ATOM     23  H   ASG d 302      17.650  34.111  52.454  0.00  0.00     0.132 H 
ATOM     24  H   ASG d 302      17.444  36.063  50.965  0.00  0.00     0.090 H 
ATOM     25  H   ASG d 302      15.733  34.313  50.949  0.00  0.00     0.091 H 
ATOM     26  H   ASG d 302      13.735  30.504  54.826  0.00  0.00     0.040 H 
ATOM     27  H   ASG d 302      15.407  30.430  54.321  0.00  0.00     0.040 H 
ATOM     28  H   ASG d 302      14.136  30.533  53.126  0.00  0.00     0.040 H 
ATOM     29  H   ASG d 302      15.935  32.255  52.649  0.00  0.00     0.163 HD
ATOM     30  H   ASG d 302      15.110  36.717  50.694  0.00  0.00     0.093 H 
ATOM     31  C6  BDP d 303      13.861  34.497  46.929  0.00  0.00     0.206 C 
ATOM     32  O4  BDP d 303      11.553  32.635  47.108  0.00  0.00    -0.348 OA
ATOM     33  O3  BDP d 303      10.176  32.354  49.566  0.00  0.00    -0.390 OA
ATOM     34  C3  BDP d 303      11.585  32.628  49.486  0.00  0.00     0.092 C 
ATOM     35  O6B BDP d 303      13.181  35.509  46.663  0.00  0.00    -0.646 OA
ATOM     36  C4  BDP d 303      11.901  33.411  48.204  0.00  0.00     0.103 C 
ATOM     37  C2  BDP d 303      11.989  33.482  50.672  0.00  0.00     0.110 C 
ATOM     38  O6A BDP d 303      14.857  34.025  46.334  0.00  0.00    -0.646 OA
ATOM     39  C1  BDP d 303      13.475  33.788  50.575  0.00  0.00     0.160 C 
ATOM     40  C5  BDP d 303      13.424  33.705  48.159  0.00  0.00     0.152 C 
ATOM     41  O5  BDP d 303      13.796  34.475  49.336  0.00  0.00    -0.340 OA
ATOM     42  O2  BDP d 303      11.740  32.785  51.897  0.00  0.00    -0.388 OA
ATOM     43  H   BDP d 303       9.989  31.859  50.379  0.00  0.00     0.210 HD
ATOM     44  H   BDP d 303      12.117  31.700  49.484  0.00  0.00     0.091 H 
ATOM     45  H   BDP d 303      11.353  34.329  48.187  0.00  0.00     0.092 H 
ATOM     46  H   BDP d 303      11.418  34.387  50.662  0.00  0.00     0.094 H 
ATOM     47  H   BDP d 303      14.006  32.859  50.600  0.00  0.00     0.133 H 
ATOM     48  H   BDP d 303      13.913  32.753  48.123  0.00  0.00     0.104 H 
ATOM     49  H   BDP d 303      12.255  31.964  51.913  0.00  0.00     0.210 HD
ATOM     50  C1  ASG d 306      12.168  37.135  39.106  0.00  0.00     0.151 C 
ATOM     51  C4  ASG d 306      11.778  39.834  38.030  0.00  0.00     0.089 C 
ATOM     52  C6  ASG d 306      10.298  40.199  40.066  0.00  0.00     0.043 C 
ATOM     53  S   ASG d 306      10.077  40.687  36.293  0.00  0.00     0.252 S 
ATOM     54  O4  ASG d 306      10.633  39.534  37.232  0.00  0.00    -0.249 OA
ATOM     55  OSB ASG d 306       8.936  40.182  35.550  0.00  0.00    -0.572 OA
ATOM     56  OSA ASG d 306       9.661  41.811  37.112  0.00  0.00    -0.572 OA
ATOM     57  C3  ASG d 306      12.990  38.995  37.486  0.00  0.00    -0.014 C 
ATOM     58  C7  ASG d 306      13.358  35.406  36.449  0.00  0.00     0.214 C 
ATOM     59  N   ASG d 306      13.629  36.508  37.263  0.00  0.00    -0.352 N 
ATOM     60  C8  ASG d 306      14.590  34.588  36.152  0.00  0.00    -0.003 C 
ATOM     61  C2  ASG d 306      12.541  37.444  37.689  0.00  0.00     0.062 C 
ATOM     62  O5  ASG d 306      11.112  38.011  39.566  0.00  0.00    -0.349 OA
ATOM     63  O6  ASG d 306       9.967  39.734  41.373  0.00  0.00    -0.398 OA
ATOM     64  O7  ASG d 306      12.246  35.113  36.018  0.00  0.00    -0.274 OA
ATOM     65  OSC ASG d 306      11.112  41.110  35.376  0.00  0.00    -0.572 OA
ATOM     66  C5  ASG d 306      11.469  39.426  39.500  0.00  0.00     0.088 C 
ATOM     67  H   ASG d 306      13.016  37.288  39.740  0.00  0.00     0.132 H 
ATOM     68  H   ASG d 306      12.017  40.877  37.990  0.00  0.00     0.089 H 
ATOM     69  H   ASG d 306       9.451  40.074  39.423  0.00  0.00     0.078 H 
ATOM     70  H   ASG d 306      10.567  41.233  40.128  0.00  0.00     0.078 H 
ATOM     71  H   ASG d 306      13.877  39.207  38.045  0.00  0.00     0.040 H 
ATOM     72  H   ASG d 306      13.213  39.222  36.465  0.00  0.00     0.040 H 
ATOM     73  H   ASG d 306      14.552  36.672  37.564  0.00  0.00     0.163 HD
ATOM     74  H   ASG d 306      15.437  35.033  36.631  0.00  0.00     0.040 H 
ATOM     75  H   ASG d 306      14.752  34.557  35.095  0.00  0.00     0.040 H 
ATOM     76  H   ASG d 306      14.454  33.592  36.520  0.00  0.00     0.040 H 
ATOM     77  H   ASG d 306      11.677  37.306  37.072  0.00  0.00     0.080 H 
ATOM     78  H   ASG d 306       9.721  38.796  41.330  0.00  0.00     0.209 HD
ATOM     79  H   ASG d 306      12.352  39.636  40.067  0.00  0.00     0.090 H 
ATOM     80  C5  BDP d 305      12.140  33.887  40.581  0.00  0.00     0.152 C 
ATOM     81  O6B BDP d 305      13.701  34.845  42.051  0.00  0.00    -0.646 OA
ATOM     82  C6  BDP d 305      13.557  34.321  40.930  0.00  0.00     0.206 C 
ATOM     83  O4  BDP d 305      11.752  35.808  39.171  0.00  0.00    -0.348 OA
ATOM     84  O3  BDP d 305       8.937  35.598  39.504  0.00  0.00    -0.390 OA
ATOM     85  C2  BDP d 305       9.281  33.859  41.108  0.00  0.00     0.110 C 
ATOM     86  C1  BDP d 305      10.220  32.716  41.524  0.00  0.00     0.160 C 
ATOM     87  C4  BDP d 305      11.219  35.071  40.209  0.00  0.00     0.103 C 
ATOM     88  O6A BDP d 305      14.407  34.097  40.034  0.00  0.00    -0.646 OA
ATOM     89  C3  BDP d 305       9.819  34.531  39.860  0.00  0.00     0.092 C 
ATOM     90  O2  BDP d 305       7.978  33.315  40.882  0.00  0.00    -0.388 OA
ATOM     91  O5  BDP d 305      11.577  33.209  41.745  0.00  0.00    -0.340 OA
ATOM     92  H   BDP d 305      12.196  33.247  39.725  0.00  0.00     0.104 H 
ATOM     93  H   BDP d 305       8.063  35.237  39.288  0.00  0.00     0.210 HD
ATOM     94  H   BDP d 305       9.223  34.598  41.878  0.00  0.00     0.094 H 
ATOM     95  H   BDP d 305      10.234  31.998  40.731  0.00  0.00     0.133 H 
ATOM     96  H   BDP d 305      11.134  35.732  41.046  0.00  0.00     0.092 H 
ATOM     97  H   BDP d 305       9.884  33.855  39.033  0.00  0.00     0.091 H 
ATOM     98  H   BDP d 305       8.025  32.643  40.185  0.00  0.00     0.210 HD
ATOM     99  O6B BDP d 301      19.478  31.173  54.145  0.00  0.00    -0.646 OA
ATOM    100  C6  BDP d 301      18.600  31.599  54.927  0.00  0.00     0.206 C 
ATOM    101  O6A BDP d 301      17.471  31.132  55.194  0.00  0.00    -0.646 OA
ATOM    102  O5  BDP d 301      20.266  32.720  56.258  0.00  0.00    -0.340 OA
ATOM    103  C5  BDP d 301      18.955  32.880  55.672  0.00  0.00     0.152 C 
ATOM    104  C3  BDP d 301      19.335  35.357  55.643  0.00  0.00     0.092 C 
ATOM    105  C1  BDP d 301      20.703  33.891  57.013  0.00  0.00     0.156 C 
ATOM    106  O1  BDP d 301      22.054  33.552  57.595  0.00  0.00    -0.368 OA
ATOM    107  C4  BDP d 301      18.911  34.131  54.795  0.00  0.00     0.103 C 
ATOM    108  C2  BDP d 301      20.745  35.129  56.166  0.00  0.00     0.110 C 
ATOM    109  O2  BDP d 301      21.180  36.217  56.979  0.00  0.00    -0.388 OA
ATOM    110  O4  BDP d 301      17.577  34.275  54.465  0.00  0.00    -0.348 OA
ATOM    111  O3  BDP d 301      19.324  36.536  54.836  0.00  0.00    -0.390 OA
ATOM    112  H   BDP d 301      18.212  33.032  56.426  0.00  0.00     0.104 H 
ATOM    113  H   BDP d 301      18.651  35.478  56.457  0.00  0.00     0.091 H 
ATOM    114  H   BDP d 301      20.005  34.116  57.792  0.00  0.00     0.133 H 
ATOM    115  H   BDP d 301      22.674  33.351  56.877  0.00  0.00     0.212 HD
ATOM    116  H   BDP d 301      19.553  34.058  53.942  0.00  0.00     0.092 H 
ATOM    117  H   BDP d 301      21.423  35.037  55.343  0.00  0.00     0.094 H 
ATOM    118  H   BDP d 301      20.578  36.319  57.732  0.00  0.00     0.210 HD
ATOM    119  H   BDP d 301      19.943  36.427  54.097  0.00  0.00     0.210 HD
ATOM    120  OSC ASG d 304       6.257  29.875  44.512  0.00  0.00    -0.572 OA
ATOM    121  O3  ASG d 304       9.753  32.112  42.712  0.00  0.00    -0.348 OA
ATOM    122  C5  ASG d 304       8.442  33.905  45.758  0.00  0.00     0.090 C 
ATOM    123  C6  ASG d 304       7.111  34.057  46.453  0.00  0.00     0.043 C 
ATOM    124  O4  ASG d 304       7.878  31.724  44.850  0.00  0.00    -0.246 OA
ATOM    125  C7  ASG d 304      13.006  31.226  44.695  0.00  0.00     0.214 C 
ATOM    126  C8  ASG d 304      14.336  31.345  43.987  0.00  0.00    -0.003 C 
ATOM    127  S   ASG d 304       6.535  31.245  44.131  0.00  0.00     0.252 S 
ATOM    128  OSB ASG d 304       5.429  32.096  44.533  0.00  0.00    -0.572 OA
ATOM    129  N   ASG d 304      12.110  32.219  44.325  0.00  0.00    -0.349 N 
ATOM    130  C4  ASG d 304       8.365  33.026  44.488  0.00  0.00     0.114 C 
ATOM    131  C3  ASG d 304       9.778  32.918  43.879  0.00  0.00     0.094 C 
ATOM    132  C1  ASG d 304      10.724  33.190  46.146  0.00  0.00     0.154 C 
ATOM    133  O7  ASG d 304      12.761  30.347  45.504  0.00  0.00    -0.274 OA
ATOM    134  O6  ASG d 304       7.124  35.186  47.328  0.00  0.00    -0.398 OA
ATOM    135  O5  ASG d 304       9.386  33.329  46.710  0.00  0.00    -0.349 OA
ATOM    136  C2  ASG d 304      10.725  32.303  44.897  0.00  0.00     0.087 C 
ATOM    137  OSA ASG d 304       6.698  31.330  42.689  0.00  0.00    -0.572 OA
ATOM    138  H   ASG d 304       8.761  34.872  45.431  0.00  0.00     0.090 H 
ATOM    139  H   ASG d 304       6.909  33.175  47.022  0.00  0.00     0.078 H 
ATOM    140  H   ASG d 304       6.352  34.204  45.713  0.00  0.00     0.078 H 
ATOM    141  H   ASG d 304      14.315  32.189  43.328  0.00  0.00     0.040 H 
ATOM    142  H   ASG d 304      14.520  30.456  43.422  0.00  0.00     0.040 H 
ATOM    143  H   ASG d 304      15.114  31.476  44.709  0.00  0.00     0.040 H 
ATOM    144  H   ASG d 304      12.393  32.891  43.664  0.00  0.00     0.163 HD
ATOM    145  H   ASG d 304       7.701  33.458  43.769  0.00  0.00     0.093 H 
ATOM    146  H   ASG d 304      10.116  33.898  43.616  0.00  0.00     0.091 H 
ATOM    147  H   ASG d 304      11.073  34.160  45.856  0.00  0.00     0.132 H 
ATOM    148  H   ASG d 304       7.809  35.064  48.004  0.00  0.00     0.209 HD
ATOM    149  H   ASG d 304      10.405  31.314  45.148  0.00  0.00     0.084 H 
ENDROOT
TORSDOF 38
ENDMDL
MODEL 27
REMARK VINA RESULT:      -6.5      9.044     14.218
REMARK  0 active torsions:
REMARK  status: ('A' for Active; 'I' for Inactive)
REMARK       I    between atoms: C6_2  and  C5_74 
REMARK       I    between atoms: C1_3  and  O4_24 
REMARK       I    between atoms: O6_4  and  C6_26 
REMARK       I    between atoms: C5_5  and  C6_12 
REMARK       I    between atoms: C4_6  and  O4_22 
REMARK       I    between atoms: C6_8  and  C5_90 
REMARK       I    between atoms: C6_8  and  O6_83 
REMARK       I    between atoms: O3_11  and  C3_60 
REMARK       I    between atoms: O3_11  and  C1_29 
REMARK       I    between atoms: C5_13  and  C6_18 
REMARK       I    between atoms: O4_14  and  C4_88 
REMARK       I    between atoms: O4_14  and  S_15 
REMARK       I    between atoms: C6_16  and  C5_28 
REMARK       I    between atoms: S_17  and  O4_22 
REMARK       I    between atoms: C6_18  and  O6_66 
REMARK       I    between atoms: O4_20  and  C4_46 
REMARK       I    between atoms: O4_20  and  C1_61 
REMARK       I    between atoms: O4_21  and  C4_54 
REMARK       I    between atoms: O4_21  and  S_40 
REMARK       I    between atoms: O4_24  and  C4_35 
REMARK       I    between atoms: O3_25  and  C3_48 
REMARK       I    between atoms: C6_26  and  C5_50 
REMARK       I    between atoms: C2_27  and  O2_55 
REMARK       I    between atoms: O3_31  and  C3_37 
REMARK       I    between atoms: C2_32  and  N_72 
REMARK       I    between atoms: C7_33  and  C8_39 
REMARK       I    between atoms: C7_33  and  N_52 
REMARK       I    between atoms: C1_34  and  O4_86 
REMARK       I    between atoms: C3_36  and  O3_87 
REMARK       I    between atoms: C2_47  and  O2_85 
REMARK       I    between atoms: N_52  and  C2_71 
REMARK       I    between atoms: C3_53  and  O3_81 
REMARK       I    between atoms: C1_56  and  O3_81 
REMARK       I    between atoms: C7_57  and  C8_64 
REMARK       I    between atoms: C7_57  and  N_63 
REMARK       I    between atoms: C8_58  and  C7_73 
REMARK       I    between atoms: C1_59  and  O1_68 
REMARK       I    between atoms: N_63  and  C2_67 
REMARK       I    between atoms: C4_69  and  O4_86 
REMARK       I    between atoms: N_72  and  C7_73 
REMARK       I    between atoms: C2_77  and  O2_82 
ROOT
ATOM      1  OSB ASG d 302       7.865  34.144  41.389  0.00  0.00    -0.572 OA
ATOM      2  O6  ASG d 302       8.114  38.505  40.911  0.00  0.00    -0.398 OA
ATOM      3  O4  ASG d 302       5.549  35.051  41.402  0.00  0.00    -0.246 OA
ATOM      4  S   ASG d 302       6.499  33.808  41.743  0.00  0.00     0.252 S 
ATOM      5  C6  ASG d 302       7.526  37.239  41.192  0.00  0.00     0.043 C 
ATOM      6  C2  ASG d 302       3.275  36.724  41.413  0.00  0.00     0.087 C 
ATOM      7  C1  ASG d 302       3.917  37.919  40.723  0.00  0.00     0.154 C 
ATOM      8  O5  ASG d 302       5.314  37.685  40.431  0.00  0.00    -0.349 OA
ATOM      9  C5  ASG d 302       6.090  37.404  41.620  0.00  0.00     0.090 C 
ATOM     10  O7  ASG d 302       0.973  35.155  40.684  0.00  0.00    -0.274 OA
ATOM     11  C3  ASG d 302       4.051  36.458  42.690  0.00  0.00     0.094 C 
ATOM     12  C8  ASG d 302      -0.545  36.674  41.760  0.00  0.00    -0.003 C 
ATOM     13  OSA ASG d 302       6.427  33.494  43.158  0.00  0.00    -0.572 OA
ATOM     14  N   ASG d 302       1.847  37.026  41.730  0.00  0.00    -0.349 N 
ATOM     15  C7  ASG d 302       0.816  36.184  41.323  0.00  0.00     0.214 C 
ATOM     16  OSC ASG d 302       6.073  32.661  40.973  0.00  0.00    -0.572 OA
ATOM     17  O3  ASG d 302       3.504  35.336  43.285  0.00  0.00    -0.348 OA
ATOM     18  C4  ASG d 302       5.514  36.158  42.324  0.00  0.00     0.114 C 
ATOM     19  H   ASG d 302       9.036  38.380  40.638  0.00  0.00     0.209 HD
ATOM     20  H   ASG d 302       8.074  36.763  41.979  0.00  0.00     0.078 H 
ATOM     21  H   ASG d 302       7.556  36.640  40.306  0.00  0.00     0.078 H 
ATOM     22  H   ASG d 302       3.299  35.863  40.778  0.00  0.00     0.084 H 
ATOM     23  H   ASG d 302       3.837  38.753  41.388  0.00  0.00     0.132 H 
ATOM     24  H   ASG d 302       6.043  38.199  42.333  0.00  0.00     0.090 H 
ATOM     25  H   ASG d 302       4.006  37.300  43.349  0.00  0.00     0.091 H 
ATOM     26  H   ASG d 302      -1.296  35.991  41.421  0.00  0.00     0.040 H 
ATOM     27  H   ASG d 302      -0.728  37.641  41.340  0.00  0.00     0.040 H 
ATOM     28  H   ASG d 302      -0.576  36.737  42.827  0.00  0.00     0.040 H 
ATOM     29  H   ASG d 302       1.630  37.840  42.238  0.00  0.00     0.163 HD
ATOM     30  H   ASG d 302       6.080  35.919  43.200  0.00  0.00     0.093 H 
ATOM     31  C6  BDP d 303       5.033  36.479  47.587  0.00  0.00     0.206 C 
ATOM     32  O4  BDP d 303       2.663  35.038  48.651  0.00  0.00    -0.348 OA
ATOM     33  O3  BDP d 303       1.188  33.329  46.943  0.00  0.00    -0.390 OA
ATOM     34  C3  BDP d 303       1.850  34.516  46.478  0.00  0.00     0.092 C 
ATOM     35  O6B BDP d 303       5.845  35.558  47.808  0.00  0.00    -0.646 OA
ATOM     36  C4  BDP d 303       3.080  34.813  47.348  0.00  0.00     0.103 C 
ATOM     37  C2  BDP d 303       2.322  34.294  45.054  0.00  0.00     0.110 C 
ATOM     38  O6A BDP d 303       5.088  37.688  47.912  0.00  0.00    -0.646 OA
ATOM     39  C1  BDP d 303       3.039  35.544  44.571  0.00  0.00     0.160 C 
ATOM     40  C5  BDP d 303       3.780  36.090  46.808  0.00  0.00     0.152 C 
ATOM     41  O5  BDP d 303       4.170  35.869  45.424  0.00  0.00    -0.340 OA
ATOM     42  O2  BDP d 303       1.207  34.039  44.194  0.00  0.00    -0.388 OA
ATOM     43  H   BDP d 303       0.414  33.152  46.387  0.00  0.00     0.210 HD
ATOM     44  H   BDP d 303       1.165  35.336  46.529  0.00  0.00     0.091 H 
ATOM     45  H   BDP d 303       3.760  33.987  47.321  0.00  0.00     0.092 H 
ATOM     46  H   BDP d 303       2.981  33.451  45.033  0.00  0.00     0.094 H 
ATOM     47  H   BDP d 303       2.343  36.355  44.599  0.00  0.00     0.133 H 
ATOM     48  H   BDP d 303       3.072  36.886  46.911  0.00  0.00     0.104 H 
ATOM     49  H   BDP d 303       0.606  34.800  44.208  0.00  0.00     0.210 HD
ATOM     50  C1  ASG d 306       9.618  35.806  54.627  0.00  0.00     0.151 C 
ATOM     51  C4  ASG d 306      12.303  34.718  55.074  0.00  0.00     0.089 C 
ATOM     52  C6  ASG d 306      11.525  32.778  53.627  0.00  0.00     0.043 C 
ATOM     53  S   ASG d 306      13.196  33.277  57.015  0.00  0.00     0.252 S 
ATOM     54  O4  ASG d 306      11.992  33.980  56.257  0.00  0.00    -0.249 OA
ATOM     55  OSB ASG d 306      12.682  32.606  58.195  0.00  0.00    -0.572 OA
ATOM     56  OSA ASG d 306      13.810  32.300  56.133  0.00  0.00    -0.572 OA
ATOM     57  C3  ASG d 306      12.071  36.243  55.371  0.00  0.00    -0.014 C 
ATOM     58  C7  ASG d 306       9.305  38.128  57.072  0.00  0.00     0.214 C 
ATOM     59  N   ASG d 306      10.090  37.780  55.970  0.00  0.00    -0.352 N 
ATOM     60  C8  ASG d 306       9.012  39.606  57.131  0.00  0.00    -0.003 C 
ATOM     61  C2  ASG d 306      10.485  36.359  55.716  0.00  0.00     0.062 C 
ATOM     62  O5  ASG d 306       9.956  34.427  54.346  0.00  0.00    -0.349 OA
ATOM     63  O6  ASG d 306      10.568  32.346  52.661  0.00  0.00    -0.398 OA
ATOM     64  O7  ASG d 306       8.883  37.333  57.906  0.00  0.00    -0.274 OA
ATOM     65  OSC ASG d 306      14.176  34.268  57.400  0.00  0.00    -0.572 OA
ATOM     66  C5  ASG d 306      11.347  34.247  53.940  0.00  0.00     0.088 C 
ATOM     67  H   ASG d 306       9.772  36.367  53.729  0.00  0.00     0.132 H 
ATOM     68  H   ASG d 306      13.319  34.561  54.776  0.00  0.00     0.089 H 
ATOM     69  H   ASG d 306      11.399  32.209  54.525  0.00  0.00     0.078 H 
ATOM     70  H   ASG d 306      12.507  32.628  53.227  0.00  0.00     0.078 H 
ATOM     71  H   ASG d 306      12.314  36.836  54.514  0.00  0.00     0.040 H 
ATOM     72  H   ASG d 306      12.686  36.599  56.170  0.00  0.00     0.040 H 
ATOM     73  H   ASG d 306      10.389  38.482  55.348  0.00  0.00     0.163 HD
ATOM     74  H   ASG d 306       9.481  40.096  56.303  0.00  0.00     0.040 H 
ATOM     75  H   ASG d 306       9.392  40.009  58.046  0.00  0.00     0.040 H 
ATOM     76  H   ASG d 306       7.954  39.762  57.085  0.00  0.00     0.040 H 
ATOM     77  H   ASG d 306      10.334  35.773  56.600  0.00  0.00     0.080 H 
ATOM     78  H   ASG d 306       9.673  32.477  53.013  0.00  0.00     0.209 HD
ATOM     79  H   ASG d 306      11.585  34.835  53.077  0.00  0.00     0.090 H 
ATOM     80  C5  BDP d 305       6.188  36.626  54.090  0.00  0.00     0.152 C 
ATOM     81  O6B BDP d 305       6.974  37.341  51.996  0.00  0.00    -0.646 OA
ATOM     82  C6  BDP d 305       6.849  37.663  53.192  0.00  0.00     0.206 C 
ATOM     83  O4  BDP d 305       8.290  35.901  55.032  0.00  0.00    -0.348 OA
ATOM     84  O3  BDP d 305       7.211  33.363  55.720  0.00  0.00    -0.390 OA
ATOM     85  C2  BDP d 305       5.194  33.937  54.571  0.00  0.00     0.110 C 
ATOM     86  C1  BDP d 305       4.284  35.103  54.159  0.00  0.00     0.160 C 
ATOM     87  C4  BDP d 305       7.125  35.448  54.445  0.00  0.00     0.103 C 
ATOM     88  O6A BDP d 305       7.190  38.719  53.779  0.00  0.00    -0.646 OA
ATOM     89  C3  BDP d 305       6.373  34.465  55.363  0.00  0.00     0.092 C 
ATOM     90  O2  BDP d 305       4.423  33.013  55.345  0.00  0.00    -0.388 OA
ATOM     91  O5  BDP d 305       5.024  36.095  53.384  0.00  0.00    -0.340 OA
ATOM     92  H   BDP d 305       5.923  37.109  55.007  0.00  0.00     0.104 H 
ATOM     93  H   BDP d 305       6.719  32.757  56.297  0.00  0.00     0.210 HD
ATOM     94  H   BDP d 305       5.577  33.435  53.708  0.00  0.00     0.094 H 
ATOM     95  H   BDP d 305       3.915  35.563  55.052  0.00  0.00     0.133 H 
ATOM     96  H   BDP d 305       7.408  34.937  53.550  0.00  0.00     0.092 H 
ATOM     97  H   BDP d 305       6.069  34.963  56.260  0.00  0.00     0.091 H 
ATOM     98  H   BDP d 305       4.072  33.463  56.130  0.00  0.00     0.210 HD
ATOM     99  O6B BDP d 301       1.123  41.081  39.958  0.00  0.00    -0.646 OA
ATOM    100  C6  BDP d 301       0.995  39.952  39.436  0.00  0.00     0.206 C 
ATOM    101  O6A BDP d 301       0.172  39.043  39.684  0.00  0.00    -0.646 OA
ATOM    102  O5  BDP d 301       2.004  40.735  37.393  0.00  0.00    -0.340 OA
ATOM    103  C5  BDP d 301       1.987  39.631  38.326  0.00  0.00     0.152 C 
ATOM    104  C3  BDP d 301       4.326  39.075  37.617  0.00  0.00     0.092 C 
ATOM    105  C1  BDP d 301       2.917  40.526  36.273  0.00  0.00     0.156 C 
ATOM    106  O1  BDP d 301       2.786  41.732  35.375  0.00  0.00    -0.368 OA
ATOM    107  C4  BDP d 301       3.399  39.338  38.831  0.00  0.00     0.103 C 
ATOM    108  C2  BDP d 301       4.331  40.308  36.726  0.00  0.00     0.110 C 
ATOM    109  O2  BDP d 301       5.149  40.113  35.575  0.00  0.00    -0.388 OA
ATOM    110  O4  BDP d 301       3.274  38.160  39.542  0.00  0.00    -0.348 OA
ATOM    111  O3  BDP d 301       5.659  38.822  38.067  0.00  0.00    -0.390 OA
ATOM    112  H   BDP d 301       1.661  38.730  37.850  0.00  0.00     0.104 H 
ATOM    113  H   BDP d 301       3.968  38.225  37.076  0.00  0.00     0.091 H 
ATOM    114  H   BDP d 301       2.660  39.633  35.742  0.00  0.00     0.133 H 
ATOM    115  H   BDP d 301       3.022  42.531  35.871  0.00  0.00     0.212 HD
ATOM    116  H   BDP d 301       3.803  40.141  39.411  0.00  0.00     0.092 H 
ATOM    117  H   BDP d 301       4.718  41.143  37.271  0.00  0.00     0.094 H 
ATOM    118  H   BDP d 301       4.816  39.358  35.065  0.00  0.00     0.210 HD
ATOM    119  H   BDP d 301       5.985  39.591  38.559  0.00  0.00     0.210 HD
ATOM    120  OSC ASG d 304      -0.384  31.876  53.459  0.00  0.00    -0.572 OA
ATOM    121  O3  ASG d 304       3.205  34.628  53.382  0.00  0.00    -0.348 OA
ATOM    122  C5  ASG d 304       3.409  32.083  50.608  0.00  0.00     0.090 C 
ATOM    123  C6  ASG d 304       2.941  30.666  50.383  0.00  0.00     0.043 C 
ATOM    124  O4  ASG d 304       1.606  32.583  52.158  0.00  0.00    -0.246 OA
ATOM    125  C7  ASG d 304       2.626  37.423  50.709  0.00  0.00     0.214 C 
ATOM    126  C8  ASG d 304       3.343  38.742  50.880  0.00  0.00    -0.003 C 
ATOM    127  S   ASG d 304       1.053  31.714  53.377  0.00  0.00     0.252 S 
ATOM    128  OSB ASG d 304       1.374  30.313  53.173  0.00  0.00    -0.572 OA
ATOM    129  N   ASG d 304       3.398  36.338  51.101  0.00  0.00    -0.349 N 
ATOM    130  C4  ASG d 304       3.034  32.630  52.005  0.00  0.00     0.114 C 
ATOM    131  C3  ASG d 304       3.535  34.085  52.114  0.00  0.00     0.094 C 
ATOM    132  C1  ASG d 304       3.263  34.311  49.668  0.00  0.00     0.154 C 
ATOM    133  O7  ASG d 304       1.491  37.335  50.269  0.00  0.00    -0.274 OA
ATOM    134  O6  ASG d 304       3.658  30.062  49.305  0.00  0.00    -0.398 OA
ATOM    135  O5  ASG d 304       2.826  32.923  49.568  0.00  0.00    -0.349 OA
ATOM    136  C2  ASG d 304       2.896  34.926  51.022  0.00  0.00     0.087 C 
ATOM    137  OSA ASG d 304       1.669  32.165  54.615  0.00  0.00    -0.572 OA
ATOM    138  H   ASG d 304       4.477  32.093  50.562  0.00  0.00     0.090 H 
ATOM    139  H   ASG d 304       1.897  30.674  50.149  0.00  0.00     0.078 H 
ATOM    140  H   ASG d 304       3.116  30.100  51.273  0.00  0.00     0.078 H 
ATOM    141  H   ASG d 304       4.321  38.569  51.279  0.00  0.00     0.040 H 
ATOM    142  H   ASG d 304       2.789  39.365  51.550  0.00  0.00     0.040 H 
ATOM    143  H   ASG d 304       3.428  39.229  49.930  0.00  0.00     0.040 H 
ATOM    144  H   ASG d 304       4.306  36.502  51.443  0.00  0.00     0.163 HD
ATOM    145  H   ASG d 304       3.486  32.041  52.776  0.00  0.00     0.093 H 
ATOM    146  H   ASG d 304       4.599  34.092  52.000  0.00  0.00     0.091 H 
ATOM    147  H   ASG d 304       4.330  34.339  49.577  0.00  0.00     0.132 H 
ATOM    148  H   ASG d 304       3.505  30.568  48.491  0.00  0.00     0.209 HD
ATOM    149  H   ASG d 304       1.833  34.941  51.142  0.00  0.00     0.084 H 
ENDROOT
TORSDOF 38
ENDMDL
MODEL 28
REMARK VINA RESULT:      -6.5      2.703      3.832
REMARK  0 active torsions:
REMARK  status: ('A' for Active; 'I' for Inactive)
REMARK       I    between atoms: C6_2  and  C5_74 
REMARK       I    between atoms: C1_3  and  O4_24 
REMARK       I    between atoms: O6_4  and  C6_26 
REMARK       I    between atoms: C5_5  and  C6_12 
REMARK       I    between atoms: C4_6  and  O4_22 
REMARK       I    between atoms: C6_8  and  C5_90 
REMARK       I    between atoms: C6_8  and  O6_83 
REMARK       I    between atoms: O3_11  and  C3_60 
REMARK       I    between atoms: O3_11  and  C1_29 
REMARK       I    between atoms: C5_13  and  C6_18 
REMARK       I    between atoms: O4_14  and  C4_88 
REMARK       I    between atoms: O4_14  and  S_15 
REMARK       I    between atoms: C6_16  and  C5_28 
REMARK       I    between atoms: S_17  and  O4_22 
REMARK       I    between atoms: C6_18  and  O6_66 
REMARK       I    between atoms: O4_20  and  C4_46 
REMARK       I    between atoms: O4_20  and  C1_61 
REMARK       I    between atoms: O4_21  and  C4_54 
REMARK       I    between atoms: O4_21  and  S_40 
REMARK       I    between atoms: O4_24  and  C4_35 
REMARK       I    between atoms: O3_25  and  C3_48 
REMARK       I    between atoms: C6_26  and  C5_50 
REMARK       I    between atoms: C2_27  and  O2_55 
REMARK       I    between atoms: O3_31  and  C3_37 
REMARK       I    between atoms: C2_32  and  N_72 
REMARK       I    between atoms: C7_33  and  C8_39 
REMARK       I    between atoms: C7_33  and  N_52 
REMARK       I    between atoms: C1_34  and  O4_86 
REMARK       I    between atoms: C3_36  and  O3_87 
REMARK       I    between atoms: C2_47  and  O2_85 
REMARK       I    between atoms: N_52  and  C2_71 
REMARK       I    between atoms: C3_53  and  O3_81 
REMARK       I    between atoms: C1_56  and  O3_81 
REMARK       I    between atoms: C7_57  and  C8_64 
REMARK       I    between atoms: C7_57  and  N_63 
REMARK       I    between atoms: C8_58  and  C7_73 
REMARK       I    between atoms: C1_59  and  O1_68 
REMARK       I    between atoms: N_63  and  C2_67 
REMARK       I    between atoms: C4_69  and  O4_86 
REMARK       I    between atoms: N_72  and  C7_73 
REMARK       I    between atoms: C2_77  and  O2_82 
ROOT
ATOM      1  OSB ASG d 302      17.355  40.859  48.099  0.00  0.00    -0.572 OA
ATOM      2  O6  ASG d 302      17.770  39.075  44.105  0.00  0.00    -0.398 OA
ATOM      3  O4  ASG d 302      18.735  38.802  48.317  0.00  0.00    -0.246 OA
ATOM      4  S   ASG d 302      17.854  39.906  49.072  0.00  0.00     0.252 S 
ATOM      5  C6  ASG d 302      17.836  39.164  45.525  0.00  0.00     0.043 C 
ATOM      6  C2  ASG d 302      20.124  36.387  47.857  0.00  0.00     0.087 C 
ATOM      7  C1  ASG d 302      20.355  36.584  46.366  0.00  0.00     0.154 C 
ATOM      8  O5  ASG d 302      19.764  37.814  45.887  0.00  0.00    -0.349 OA
ATOM      9  C5  ASG d 302      18.337  37.871  46.115  0.00  0.00     0.090 C 
ATOM     10  O7  ASG d 302      21.999  35.977  50.003  0.00  0.00    -0.274 OA
ATOM     11  C3  ASG d 302      18.625  36.389  48.095  0.00  0.00     0.094 C 
ATOM     12  C8  ASG d 302      22.077  33.605  49.636  0.00  0.00    -0.003 C 
ATOM     13  OSA ASG d 302      16.738  39.277  49.753  0.00  0.00    -0.572 OA
ATOM     14  N   ASG d 302      20.715  35.088  48.296  0.00  0.00    -0.349 N 
ATOM     15  C7  ASG d 302      21.615  35.016  49.356  0.00  0.00     0.214 C 
ATOM     16  OSC ASG d 302      18.682  40.594  50.037  0.00  0.00    -0.572 OA
ATOM     17  O3  ASG d 302      18.419  36.270  49.457  0.00  0.00    -0.348 OA
ATOM     18  C4  ASG d 302      18.054  37.737  47.626  0.00  0.00     0.114 C 
ATOM     19  H   ASG d 302      17.446  39.914  43.743  0.00  0.00     0.209 HD
ATOM     20  H   ASG d 302      16.859  39.371  45.910  0.00  0.00     0.078 H 
ATOM     21  H   ASG d 302      18.512  39.949  45.791  0.00  0.00     0.078 H 
ATOM     22  H   ASG d 302      20.590  37.170  48.418  0.00  0.00     0.084 H 
ATOM     23  H   ASG d 302      19.896  35.760  45.860  0.00  0.00     0.132 H 
ATOM     24  H   ASG d 302      17.818  37.064  45.641  0.00  0.00     0.090 H 
ATOM     25  H   ASG d 302      18.151  35.588  47.566  0.00  0.00     0.091 H 
ATOM     26  H   ASG d 302      22.763  33.611  50.457  0.00  0.00     0.040 H 
ATOM     27  H   ASG d 302      22.562  33.210  48.768  0.00  0.00     0.040 H 
ATOM     28  H   ASG d 302      21.233  32.996  49.882  0.00  0.00     0.040 H 
ATOM     29  H   ASG d 302      20.463  34.261  47.824  0.00  0.00     0.163 HD
ATOM     30  H   ASG d 302      17.004  37.790  47.823  0.00  0.00     0.093 H 
ATOM     31  C6  BDP d 303      14.085  34.499  48.969  0.00  0.00     0.206 C 
ATOM     32  O4  BDP d 303      14.552  33.044  51.516  0.00  0.00    -0.348 OA
ATOM     33  O3  BDP d 303      16.731  33.785  53.165  0.00  0.00    -0.390 OA
ATOM     34  C3  BDP d 303      16.768  33.882  51.732  0.00  0.00     0.092 C 
ATOM     35  O6B BDP d 303      13.394  35.408  49.473  0.00  0.00    -0.646 OA
ATOM     36  C4  BDP d 303      15.355  34.124  51.181  0.00  0.00     0.103 C 
ATOM     37  C2  BDP d 303      17.636  35.061  51.339  0.00  0.00     0.110 C 
ATOM     38  O6A BDP d 303      13.837  33.757  47.991  0.00  0.00    -0.646 OA
ATOM     39  C1  BDP d 303      17.657  35.174  49.823  0.00  0.00     0.160 C 
ATOM     40  C5  BDP d 303      15.434  34.241  49.635  0.00  0.00     0.152 C 
ATOM     41  O5  BDP d 303      16.318  35.342  49.285  0.00  0.00    -0.340 OA
ATOM     42  O2  BDP d 303      18.975  34.873  51.807  0.00  0.00    -0.388 OA
ATOM     43  H   BDP d 303      17.628  33.632  53.502  0.00  0.00     0.210 HD
ATOM     44  H   BDP d 303      17.160  32.969  51.334  0.00  0.00     0.091 H 
ATOM     45  H   BDP d 303      14.947  35.023  51.593  0.00  0.00     0.092 H 
ATOM     46  H   BDP d 303      17.234  35.951  51.776  0.00  0.00     0.094 H 
ATOM     47  H   BDP d 303      18.074  34.271  49.431  0.00  0.00     0.133 H 
ATOM     48  H   BDP d 303      15.796  33.298  49.281  0.00  0.00     0.104 H 
ATOM     49  H   BDP d 303      19.345  34.067  51.413  0.00  0.00     0.210 HD
ATOM     50  C1  ASG d 306       5.674  34.321  49.466  0.00  0.00     0.151 C 
ATOM     51  C4  ASG d 306       3.696  36.483  49.368  0.00  0.00     0.089 C 
ATOM     52  C6  ASG d 306       5.247  37.684  50.987  0.00  0.00     0.043 C 
ATOM     53  S   ASG d 306       1.545  36.813  50.748  0.00  0.00     0.252 S 
ATOM     54  O4  ASG d 306       2.891  36.025  50.456  0.00  0.00    -0.249 OA
ATOM     55  OSB ASG d 306       0.863  36.184  51.864  0.00  0.00    -0.572 OA
ATOM     56  OSA ASG d 306       1.861  38.189  51.088  0.00  0.00    -0.572 OA
ATOM     57  C3  ASG d 306       3.653  35.397  48.234  0.00  0.00    -0.014 C 
ATOM     58  C7  ASG d 306       3.969  31.656  48.256  0.00  0.00     0.214 C 
ATOM     59  N   ASG d 306       4.388  32.947  47.922  0.00  0.00    -0.352 N 
ATOM     60  C8  ASG d 306       4.151  30.677  47.124  0.00  0.00    -0.003 C 
ATOM     61  C2  ASG d 306       4.306  34.069  48.909  0.00  0.00     0.062 C 
ATOM     62  O5  ASG d 306       5.649  35.396  50.434  0.00  0.00    -0.349 OA
ATOM     63  O6  ASG d 306       6.572  37.747  51.512  0.00  0.00    -0.398 OA
ATOM     64  O7  ASG d 306       3.508  31.333  49.347  0.00  0.00    -0.274 OA
ATOM     65  OSC ASG d 306       0.699  36.785  49.576  0.00  0.00    -0.572 OA
ATOM     66  C5  ASG d 306       5.156  36.656  49.881  0.00  0.00     0.088 C 
ATOM     67  H   ASG d 306       6.333  34.611  48.675  0.00  0.00     0.132 H 
ATOM     68  H   ASG d 306       3.337  37.416  48.987  0.00  0.00     0.089 H 
ATOM     69  H   ASG d 306       4.570  37.416  51.773  0.00  0.00     0.078 H 
ATOM     70  H   ASG d 306       4.991  38.643  50.587  0.00  0.00     0.078 H 
ATOM     71  H   ASG d 306       4.229  35.712  47.389  0.00  0.00     0.040 H 
ATOM     72  H   ASG d 306       2.660  35.224  47.877  0.00  0.00     0.040 H 
ATOM     73  H   ASG d 306       4.745  33.121  47.021  0.00  0.00     0.163 HD
ATOM     74  H   ASG d 306       4.567  31.183  46.277  0.00  0.00     0.040 H 
ATOM     75  H   ASG d 306       3.204  30.257  46.859  0.00  0.00     0.040 H 
ATOM     76  H   ASG d 306       4.814  29.895  47.432  0.00  0.00     0.040 H 
ATOM     77  H   ASG d 306       3.655  33.800  49.716  0.00  0.00     0.080 H 
ATOM     78  H   ASG d 306       6.816  36.883  51.879  0.00  0.00     0.209 HD
ATOM     79  H   ASG d 306       5.739  36.972  49.041  0.00  0.00     0.090 H 
ATOM     80  C5  BDP d 305       8.148  31.828  50.091  0.00  0.00     0.152 C 
ATOM     81  O6B BDP d 305       9.412  33.099  48.575  0.00  0.00    -0.646 OA
ATOM     82  C6  BDP d 305       8.530  32.226  48.672  0.00  0.00     0.206 C 
ATOM     83  O4  BDP d 305       6.126  33.148  50.064  0.00  0.00    -0.348 OA
ATOM     84  O3  BDP d 305       6.100  33.331  52.900  0.00  0.00    -0.390 OA
ATOM     85  C2  BDP d 305       8.233  32.253  52.966  0.00  0.00     0.110 C 
ATOM     86  C1  BDP d 305       9.146  31.253  52.241  0.00  0.00     0.160 C 
ATOM     87  C4  BDP d 305       7.265  32.882  50.798  0.00  0.00     0.103 C 
ATOM     88  O6A BDP d 305       7.897  31.621  47.772  0.00  0.00    -0.646 OA
ATOM     89  C3  BDP d 305       6.922  32.384  52.215  0.00  0.00     0.092 C 
ATOM     90  O2  BDP d 305       8.020  31.787  54.301  0.00  0.00    -0.388 OA
ATOM     91  O5  BDP d 305       9.379  31.665  50.860  0.00  0.00    -0.340 OA
ATOM     92  H   BDP d 305       7.580  30.924  50.035  0.00  0.00     0.104 H 
ATOM     93  H   BDP d 305       5.896  32.998  53.789  0.00  0.00     0.210 HD
ATOM     94  H   BDP d 305       8.687  33.221  53.002  0.00  0.00     0.094 H 
ATOM     95  H   BDP d 305       8.657  30.301  52.244  0.00  0.00     0.133 H 
ATOM     96  H   BDP d 305       7.805  33.802  50.877  0.00  0.00     0.092 H 
ATOM     97  H   BDP d 305       6.394  31.455  52.158  0.00  0.00     0.091 H 
ATOM     98  H   BDP d 305       7.608  30.909  54.275  0.00  0.00     0.210 HD
ATOM     99  O6B BDP d 301      22.735  33.463  44.637  0.00  0.00    -0.646 OA
ATOM    100  C6  BDP d 301      23.188  34.218  45.525  0.00  0.00     0.206 C 
ATOM    101  O6A BDP d 301      23.432  33.983  46.728  0.00  0.00    -0.646 OA
ATOM    102  O5  BDP d 301      24.283  35.581  43.867  0.00  0.00    -0.340 OA
ATOM    103  C5  BDP d 301      23.494  35.642  45.077  0.00  0.00     0.152 C 
ATOM    104  C3  BDP d 301      22.677  37.900  44.360  0.00  0.00     0.092 C 
ATOM    105  C1  BDP d 301      24.648  36.899  43.354  0.00  0.00     0.156 C 
ATOM    106  O1  BDP d 301      25.500  36.667  42.130  0.00  0.00    -0.368 OA
ATOM    107  C4  BDP d 301      22.246  36.497  44.857  0.00  0.00     0.103 C 
ATOM    108  C2  BDP d 301      23.445  37.745  43.055  0.00  0.00     0.110 C 
ATOM    109  O2  BDP d 301      23.891  39.006  42.562  0.00  0.00    -0.388 OA
ATOM    110  O4  BDP d 301      21.697  36.636  46.117  0.00  0.00    -0.348 OA
ATOM    111  O3  BDP d 301      21.523  38.710  44.125  0.00  0.00    -0.390 OA
ATOM    112  H   BDP d 301      24.035  36.121  45.865  0.00  0.00     0.104 H 
ATOM    113  H   BDP d 301      23.292  38.366  45.101  0.00  0.00     0.091 H 
ATOM    114  H   BDP d 301      25.193  37.450  44.092  0.00  0.00     0.133 H 
ATOM    115  H   BDP d 301      24.992  36.167  41.473  0.00  0.00     0.212 HD
ATOM    116  H   BDP d 301      21.573  36.066  44.147  0.00  0.00     0.092 H 
ATOM    117  H   BDP d 301      22.810  37.304  42.315  0.00  0.00     0.094 H 
ATOM    118  H   BDP d 301      24.469  39.424  43.219  0.00  0.00     0.210 HD
ATOM    119  H   BDP d 301      20.964  38.289  43.454  0.00  0.00     0.210 HD
ATOM    120  OSC ASG d 304      12.316  30.040  56.843  0.00  0.00    -0.572 OA
ATOM    121  O3  ASG d 304      10.387  31.157  52.907  0.00  0.00    -0.348 OA
ATOM    122  C5  ASG d 304      12.413  34.030  54.267  0.00  0.00     0.090 C 
ATOM    123  C6  ASG d 304      12.814  34.542  55.630  0.00  0.00     0.043 C 
ATOM    124  O4  ASG d 304      12.233  31.730  55.028  0.00  0.00    -0.246 OA
ATOM    125  C7  ASG d 304      13.003  30.740  50.029  0.00  0.00     0.214 C 
ATOM    126  C8  ASG d 304      12.497  30.477  48.629  0.00  0.00    -0.003 C 
ATOM    127  S   ASG d 304      11.534  31.153  56.342  0.00  0.00     0.252 S 
ATOM    128  OSB ASG d 304      11.456  32.189  57.357  0.00  0.00    -0.572 OA
ATOM    129  N   ASG d 304      12.190  31.614  50.737  0.00  0.00    -0.349 N 
ATOM    130  C4  ASG d 304      11.523  32.767  54.332  0.00  0.00     0.114 C 
ATOM    131  C3  ASG d 304      11.199  32.320  52.892  0.00  0.00     0.094 C 
ATOM    132  C1  ASG d 304      13.349  33.294  52.157  0.00  0.00     0.154 C 
ATOM    133  O7  ASG d 304      14.019  30.234  50.474  0.00  0.00    -0.274 OA
ATOM    134  O6  ASG d 304      13.242  35.902  55.553  0.00  0.00    -0.398 OA
ATOM    135  O5  ASG d 304      13.631  33.747  53.515  0.00  0.00    -0.349 OA
ATOM    136  C2  ASG d 304      12.492  32.024  52.149  0.00  0.00     0.087 C 
ATOM    137  OSA ASG d 304      10.190  30.703  56.021  0.00  0.00    -0.572 OA
ATOM    138  H   ASG d 304      11.826  34.783  53.787  0.00  0.00     0.090 H 
ATOM    139  H   ASG d 304      13.614  33.943  56.009  0.00  0.00     0.078 H 
ATOM    140  H   ASG d 304      11.967  34.484  56.281  0.00  0.00     0.078 H 
ATOM    141  H   ASG d 304      11.595  31.028  48.465  0.00  0.00     0.040 H 
ATOM    142  H   ASG d 304      12.303  29.432  48.511  0.00  0.00     0.040 H 
ATOM    143  H   ASG d 304      13.236  30.784  47.919  0.00  0.00     0.040 H 
ATOM    144  H   ASG d 304      11.388  31.978  50.297  0.00  0.00     0.163 HD
ATOM    145  H   ASG d 304      10.611  32.974  54.853  0.00  0.00     0.093 H 
ATOM    146  H   ASG d 304      10.669  33.107  52.398  0.00  0.00     0.091 H 
ATOM    147  H   ASG d 304      12.799  34.060  51.651  0.00  0.00     0.132 H 
ATOM    148  H   ASG d 304      14.011  35.966  54.964  0.00  0.00     0.209 HD
ATOM    149  H   ASG d 304      13.017  31.223  52.626  0.00  0.00     0.084 H 
ENDROOT
TORSDOF 38
ENDMDL
MODEL 29
REMARK VINA RESULT:      -6.4      5.336      9.615
REMARK  0 active torsions:
REMARK  status: ('A' for Active; 'I' for Inactive)
REMARK       I    between atoms: C6_2  and  C5_74 
REMARK       I    between atoms: C1_3  and  O4_24 
REMARK       I    between atoms: O6_4  and  C6_26 
REMARK       I    between atoms: C5_5  and  C6_12 
REMARK       I    between atoms: C4_6  and  O4_22 
REMARK       I    between atoms: C6_8  and  C5_90 
REMARK       I    between atoms: C6_8  and  O6_83 
REMARK       I    between atoms: O3_11  and  C3_60 
REMARK       I    between atoms: O3_11  and  C1_29 
REMARK       I    between atoms: C5_13  and  C6_18 
REMARK       I    between atoms: O4_14  and  C4_88 
REMARK       I    between atoms: O4_14  and  S_15 
REMARK       I    between atoms: C6_16  and  C5_28 
REMARK       I    between atoms: S_17  and  O4_22 
REMARK       I    between atoms: C6_18  and  O6_66 
REMARK       I    between atoms: O4_20  and  C4_46 
REMARK       I    between atoms: O4_20  and  C1_61 
REMARK       I    between atoms: O4_21  and  C4_54 
REMARK       I    between atoms: O4_21  and  S_40 
REMARK       I    between atoms: O4_24  and  C4_35 
REMARK       I    between atoms: O3_25  and  C3_48 
REMARK       I    between atoms: C6_26  and  C5_50 
REMARK       I    between atoms: C2_27  and  O2_55 
REMARK       I    between atoms: O3_31  and  C3_37 
REMARK       I    between atoms: C2_32  and  N_72 
REMARK       I    between atoms: C7_33  and  C8_39 
REMARK       I    between atoms: C7_33  and  N_52 
REMARK       I    between atoms: C1_34  and  O4_86 
REMARK       I    between atoms: C3_36  and  O3_87 
REMARK       I    between atoms: C2_47  and  O2_85 
REMARK       I    between atoms: N_52  and  C2_71 
REMARK       I    between atoms: C3_53  and  O3_81 
REMARK       I    between atoms: C1_56  and  O3_81 
REMARK       I    between atoms: C7_57  and  C8_64 
REMARK       I    between atoms: C7_57  and  N_63 
REMARK       I    between atoms: C8_58  and  C7_73 
REMARK       I    between atoms: C1_59  and  O1_68 
REMARK       I    between atoms: N_63  and  C2_67 
REMARK       I    between atoms: C4_69  and  O4_86 
REMARK       I    between atoms: N_72  and  C7_73 
REMARK       I    between atoms: C2_77  and  O2_82 
ROOT
ATOM      1  OSB ASG d 302      18.645  37.576  49.306  0.00  0.00    -0.572 OA
ATOM      2  O6  ASG d 302      19.824  33.343  49.323  0.00  0.00    -0.398 OA
ATOM      3  O4  ASG d 302      18.006  36.611  51.507  0.00  0.00    -0.246 OA
ATOM      4  S   ASG d 302      17.815  37.817  50.471  0.00  0.00     0.252 S 
ATOM      5  C6  ASG d 302      19.179  34.537  49.758  0.00  0.00     0.043 C 
ATOM      6  C2  ASG d 302      17.499  34.890  53.687  0.00  0.00     0.087 C 
ATOM      7  C1  ASG d 302      18.531  33.830  53.334  0.00  0.00     0.154 C 
ATOM      8  O5  ASG d 302      19.228  34.144  52.106  0.00  0.00    -0.349 OA
ATOM      9  C5  ASG d 302      18.333  34.268  50.976  0.00  0.00     0.090 C 
ATOM     10  O7  ASG d 302      17.187  36.482  56.066  0.00  0.00    -0.274 OA
ATOM     11  C3  ASG d 302      16.523  34.986  52.528  0.00  0.00     0.094 C 
ATOM     12  C8  ASG d 302      15.912  34.777  57.178  0.00  0.00    -0.003 C 
ATOM     13  OSA ASG d 302      16.425  37.915  50.067  0.00  0.00    -0.572 OA
ATOM     14  N   ASG d 302      16.779  34.503  54.937  0.00  0.00    -0.349 N 
ATOM     15  C7  ASG d 302      16.694  35.366  56.027  0.00  0.00     0.214 C 
ATOM     16  OSC ASG d 302      18.222  39.052  51.102  0.00  0.00    -0.572 OA
ATOM     17  O3  ASG d 302      15.621  35.990  52.824  0.00  0.00    -0.348 OA
ATOM     18  C4  ASG d 302      17.301  35.379  51.261  0.00  0.00     0.114 C 
ATOM     19  H   ASG d 302      20.363  33.534  48.540  0.00  0.00     0.209 HD
ATOM     20  H   ASG d 302      18.555  34.906  48.971  0.00  0.00     0.078 H 
ATOM     21  H   ASG d 302      19.926  35.261  50.009  0.00  0.00     0.078 H 
ATOM     22  H   ASG d 302      17.970  35.835  53.855  0.00  0.00     0.084 H 
ATOM     23  H   ASG d 302      18.010  32.904  53.209  0.00  0.00     0.132 H 
ATOM     24  H   ASG d 302      17.771  33.375  50.803  0.00  0.00     0.090 H 
ATOM     25  H   ASG d 302      16.020  34.054  52.372  0.00  0.00     0.091 H 
ATOM     26  H   ASG d 302      15.879  35.481  57.983  0.00  0.00     0.040 H 
ATOM     27  H   ASG d 302      16.388  33.878  57.509  0.00  0.00     0.040 H 
ATOM     28  H   ASG d 302      14.916  34.556  56.857  0.00  0.00     0.040 H 
ATOM     29  H   ASG d 302      16.355  33.616  54.992  0.00  0.00     0.163 HD
ATOM     30  H   ASG d 302      16.634  35.501  50.433  0.00  0.00     0.093 H 
ATOM     31  C6  BDP d 303      12.283  34.266  49.988  0.00  0.00     0.206 C 
ATOM     32  O4  BDP d 303      10.296  35.465  51.844  0.00  0.00    -0.348 OA
ATOM     33  O3  BDP d 303      11.148  37.365  53.762  0.00  0.00    -0.390 OA
ATOM     34  C3  BDP d 303      11.977  36.279  53.316  0.00  0.00     0.092 C 
ATOM     35  O6B BDP d 303      12.206  35.168  49.129  0.00  0.00    -0.646 OA
ATOM     36  C4  BDP d 303      11.615  35.892  51.875  0.00  0.00     0.103 C 
ATOM     37  C2  BDP d 303      13.426  36.724  53.335  0.00  0.00     0.110 C 
ATOM     38  O6A BDP d 303      12.178  33.025  49.856  0.00  0.00    -0.646 OA
ATOM     39  C1  BDP d 303      14.299  35.581  52.844  0.00  0.00     0.160 C 
ATOM     40  C5  BDP d 303      12.539  34.731  51.420  0.00  0.00     0.152 C 
ATOM     41  O5  BDP d 303      13.925  35.165  51.503  0.00  0.00    -0.340 OA
ATOM     42  O2  BDP d 303      13.824  37.072  54.665  0.00  0.00    -0.388 OA
ATOM     43  H   BDP d 303      11.386  37.600  54.672  0.00  0.00     0.210 HD
ATOM     44  H   BDP d 303      11.826  35.441  53.964  0.00  0.00     0.091 H 
ATOM     45  H   BDP d 303      11.740  36.733  51.224  0.00  0.00     0.092 H 
ATOM     46  H   BDP d 303      13.537  37.580  52.702  0.00  0.00     0.094 H 
ATOM     47  H   BDP d 303      14.166  34.754  53.509  0.00  0.00     0.133 H 
ATOM     48  H   BDP d 303      12.329  33.908  52.071  0.00  0.00     0.104 H 
ATOM     49  H   BDP d 303      13.727  36.300  55.244  0.00  0.00     0.210 HD
ATOM     50  C1  ASG d 306       7.125  34.021  43.328  0.00  0.00     0.151 C 
ATOM     51  C4  ASG d 306       7.428  35.107  40.622  0.00  0.00     0.089 C 
ATOM     52  C6  ASG d 306       8.232  37.218  41.791  0.00  0.00     0.043 C 
ATOM     53  S   ASG d 306       5.697  36.270  39.109  0.00  0.00     0.252 S 
ATOM     54  O4  ASG d 306       6.112  35.652  40.510  0.00  0.00    -0.249 OA
ATOM     55  OSB ASG d 306       4.326  36.744  39.190  0.00  0.00    -0.572 OA
ATOM     56  OSA ASG d 306       6.575  37.384  38.798  0.00  0.00    -0.572 OA
ATOM     57  C3  ASG d 306       7.303  33.549  40.777  0.00  0.00    -0.014 C 
ATOM     58  C7  ASG d 306       5.090  31.354  42.869  0.00  0.00     0.214 C 
ATOM     59  N   ASG d 306       6.323  31.884  42.483  0.00  0.00    -0.352 N 
ATOM     60  C8  ASG d 306       5.159  29.875  43.158  0.00  0.00    -0.003 C 
ATOM     61  C2  ASG d 306       6.477  33.338  42.163  0.00  0.00     0.062 C 
ATOM     62  O5  ASG d 306       7.292  35.435  43.072  0.00  0.00    -0.349 OA
ATOM     63  O6  ASG d 306       8.753  37.760  43.003  0.00  0.00    -0.398 OA
ATOM     64  O7  ASG d 306       4.054  32.004  42.974  0.00  0.00    -0.274 OA
ATOM     65  OSC ASG d 306       5.807  35.262  38.078  0.00  0.00    -0.572 OA
ATOM     66  C5  ASG d 306       8.101  35.714  41.888  0.00  0.00     0.088 C 
ATOM     67  H   ASG d 306       8.097  33.604  43.490  0.00  0.00     0.132 H 
ATOM     68  H   ASG d 306       8.017  35.336  39.758  0.00  0.00     0.089 H 
ATOM     69  H   ASG d 306       7.268  37.643  41.602  0.00  0.00     0.078 H 
ATOM     70  H   ASG d 306       8.905  37.453  40.993  0.00  0.00     0.078 H 
ATOM     71  H   ASG d 306       8.271  33.097  40.843  0.00  0.00     0.040 H 
ATOM     72  H   ASG d 306       6.813  33.097  39.940  0.00  0.00     0.040 H 
ATOM     73  H   ASG d 306       7.107  31.290  42.421  0.00  0.00     0.163 HD
ATOM     74  H   ASG d 306       6.158  29.527  42.998  0.00  0.00     0.040 H 
ATOM     75  H   ASG d 306       4.491  29.352  42.507  0.00  0.00     0.040 H 
ATOM     76  H   ASG d 306       4.877  29.697  44.175  0.00  0.00     0.040 H 
ATOM     77  H   ASG d 306       5.516  33.781  42.001  0.00  0.00     0.080 H 
ATOM     78  H   ASG d 306       8.151  37.553  43.735  0.00  0.00     0.209 HD
ATOM     79  H   ASG d 306       9.072  35.267  41.960  0.00  0.00     0.090 H 
ATOM     80  C5  BDP d 305       6.621  33.191  46.760  0.00  0.00     0.152 C 
ATOM     81  O6B BDP d 305       8.939  32.817  46.723  0.00  0.00    -0.646 OA
ATOM     82  C6  BDP d 305       7.830  32.318  46.455  0.00  0.00     0.206 C 
ATOM     83  O4  BDP d 305       6.325  33.828  44.450  0.00  0.00    -0.348 OA
ATOM     84  O3  BDP d 305       4.949  36.203  45.187  0.00  0.00    -0.390 OA
ATOM     85  C2  BDP d 305       5.443  35.749  47.482  0.00  0.00     0.110 C 
ATOM     86  C1  BDP d 305       5.703  34.630  48.502  0.00  0.00     0.160 C 
ATOM     87  C4  BDP d 305       6.421  34.329  45.733  0.00  0.00     0.103 C 
ATOM     88  O6A BDP d 305       7.553  31.196  45.962  0.00  0.00    -0.646 OA
ATOM     89  C3  BDP d 305       5.171  35.143  46.119  0.00  0.00     0.092 C 
ATOM     90  O2  BDP d 305       4.330  36.524  47.934  0.00  0.00    -0.388 OA
ATOM     91  O5  BDP d 305       6.817  33.786  48.080  0.00  0.00    -0.340 OA
ATOM     92  H   BDP d 305       5.751  32.570  46.719  0.00  0.00     0.104 H 
ATOM     93  H   BDP d 305       4.159  36.703  45.447  0.00  0.00     0.210 HD
ATOM     94  H   BDP d 305       6.298  36.384  47.393  0.00  0.00     0.094 H 
ATOM     95  H   BDP d 305       4.817  34.033  48.566  0.00  0.00     0.133 H 
ATOM     96  H   BDP d 305       7.273  34.976  45.750  0.00  0.00     0.092 H 
ATOM     97  H   BDP d 305       4.309  34.509  46.122  0.00  0.00     0.091 H 
ATOM     98  H   BDP d 305       3.550  35.953  48.017  0.00  0.00     0.210 HD
ATOM     99  O6B BDP d 301      18.799  30.736  56.293  0.00  0.00    -0.646 OA
ATOM    100  C6  BDP d 301      19.075  31.926  56.561  0.00  0.00     0.206 C 
ATOM    101  O6A BDP d 301      18.438  32.763  57.236  0.00  0.00    -0.646 OA
ATOM    102  O5  BDP d 301      21.429  31.483  56.298  0.00  0.00    -0.340 OA
ATOM    103  C5  BDP d 301      20.389  32.437  55.983  0.00  0.00     0.152 C 
ATOM    104  C3  BDP d 301      21.735  33.159  53.996  0.00  0.00     0.092 C 
ATOM    105  C1  BDP d 301      22.743  31.884  55.801  0.00  0.00     0.156 C 
ATOM    106  O1  BDP d 301      23.717  30.821  56.246  0.00  0.00    -0.368 OA
ATOM    107  C4  BDP d 301      20.338  32.692  54.477  0.00  0.00     0.103 C 
ATOM    108  C2  BDP d 301      22.752  32.073  54.312  0.00  0.00     0.110 C 
ATOM    109  O2  BDP d 301      24.066  32.460  53.914  0.00  0.00    -0.388 OA
ATOM    110  O4  BDP d 301      19.458  33.748  54.335  0.00  0.00    -0.348 OA
ATOM    111  O3  BDP d 301      21.716  33.381  52.585  0.00  0.00    -0.390 OA
ATOM    112  H   BDP d 301      20.591  33.388  56.428  0.00  0.00     0.104 H 
ATOM    113  H   BDP d 301      21.995  34.069  54.494  0.00  0.00     0.091 H 
ATOM    114  H   BDP d 301      23.019  32.837  56.199  0.00  0.00     0.133 H 
ATOM    115  H   BDP d 301      23.452  29.964  55.877  0.00  0.00     0.212 HD
ATOM    116  H   BDP d 301      20.050  31.824  53.922  0.00  0.00     0.092 H 
ATOM    117  H   BDP d 301      22.496  31.177  53.785  0.00  0.00     0.094 H 
ATOM    118  H   BDP d 301      24.319  33.272  54.381  0.00  0.00     0.210 HD
ATOM    119  H   BDP d 301      21.480  32.557  52.131  0.00  0.00     0.210 HD
ATOM    120  OSC ASG d 304       4.338  37.789  53.069  0.00  0.00    -0.572 OA
ATOM    121  O3  ASG d 304       6.001  35.184  49.766  0.00  0.00    -0.348 OA
ATOM    122  C5  ASG d 304       8.274  38.117  50.431  0.00  0.00     0.090 C 
ATOM    123  C6  ASG d 304       8.119  39.538  50.917  0.00  0.00     0.043 C 
ATOM    124  O4  ASG d 304       6.312  37.341  51.633  0.00  0.00    -0.246 OA
ATOM    125  C7  ASG d 304       8.722  32.801  51.253  0.00  0.00     0.214 C 
ATOM    126  C8  ASG d 304       8.996  31.492  50.549  0.00  0.00    -0.003 C 
ATOM    127  S   ASG d 304       4.863  38.003  51.735  0.00  0.00     0.252 S 
ATOM    128  OSB ASG d 304       4.949  39.427  51.469  0.00  0.00    -0.572 OA
ATOM    129  N   ASG d 304       8.447  33.837  50.372  0.00  0.00    -0.349 N 
ATOM    130  C4  ASG d 304       6.930  37.359  50.337  0.00  0.00     0.114 C 
ATOM    131  C3  ASG d 304       7.211  35.919  49.860  0.00  0.00     0.094 C 
ATOM    132  C1  ASG d 304       9.437  36.050  50.927  0.00  0.00     0.154 C 
ATOM    133  O7  ASG d 304       8.746  32.920  52.467  0.00  0.00    -0.274 OA
ATOM    134  O6  ASG d 304       9.269  40.316  50.581  0.00  0.00    -0.398 OA
ATOM    135  O5  ASG d 304       9.178  37.424  51.343  0.00  0.00    -0.349 OA
ATOM    136  C2  ASG d 304       8.145  35.231  50.841  0.00  0.00     0.087 C 
ATOM    137  OSA ASG d 304       3.978  37.392  50.756  0.00  0.00    -0.572 OA
ATOM    138  H   ASG d 304       8.670  38.145  49.438  0.00  0.00     0.090 H 
ATOM    139  H   ASG d 304       7.995  39.534  51.979  0.00  0.00     0.078 H 
ATOM    140  H   ASG d 304       7.261  39.970  50.445  0.00  0.00     0.078 H 
ATOM    141  H   ASG d 304       8.918  31.633  49.491  0.00  0.00     0.040 H 
ATOM    142  H   ASG d 304       8.281  30.761  50.865  0.00  0.00     0.040 H 
ATOM    143  H   ASG d 304       9.982  31.155  50.793  0.00  0.00     0.040 H 
ATOM    144  H   ASG d 304       8.451  33.651  49.405  0.00  0.00     0.163 HD
ATOM    145  H   ASG d 304       6.272  37.840  49.644  0.00  0.00     0.093 H 
ATOM    146  H   ASG d 304       7.668  35.959  48.893  0.00  0.00     0.091 H 
ATOM    147  H   ASG d 304       9.876  36.067  49.951  0.00  0.00     0.132 H 
ATOM    148  H   ASG d 304      10.053  39.932  51.005  0.00  0.00     0.209 HD
ATOM    149  H   ASG d 304       7.685  35.167  51.806  0.00  0.00     0.084 H 
ENDROOT
TORSDOF 38
ENDMDL
MODEL 30
REMARK VINA RESULT:      -6.3      6.544      9.296
REMARK  0 active torsions:
REMARK  status: ('A' for Active; 'I' for Inactive)
REMARK       I    between atoms: C6_2  and  C5_74 
REMARK       I    between atoms: C1_3  and  O4_24 
REMARK       I    between atoms: O6_4  and  C6_26 
REMARK       I    between atoms: C5_5  and  C6_12 
REMARK       I    between atoms: C4_6  and  O4_22 
REMARK       I    between atoms: C6_8  and  C5_90 
REMARK       I    between atoms: C6_8  and  O6_83 
REMARK       I    between atoms: O3_11  and  C3_60 
REMARK       I    between atoms: O3_11  and  C1_29 
REMARK       I    between atoms: C5_13  and  C6_18 
REMARK       I    between atoms: O4_14  and  C4_88 
REMARK       I    between atoms: O4_14  and  S_15 
REMARK       I    between atoms: C6_16  and  C5_28 
REMARK       I    between atoms: S_17  and  O4_22 
REMARK       I    between atoms: C6_18  and  O6_66 
REMARK       I    between atoms: O4_20  and  C4_46 
REMARK       I    between atoms: O4_20  and  C1_61 
REMARK       I    between atoms: O4_21  and  C4_54 
REMARK       I    between atoms: O4_21  and  S_40 
REMARK       I    between atoms: O4_24  and  C4_35 
REMARK       I    between atoms: O3_25  and  C3_48 
REMARK       I    between atoms: C6_26  and  C5_50 
REMARK       I    between atoms: C2_27  and  O2_55 
REMARK       I    between atoms: O3_31  and  C3_37 
REMARK       I    between atoms: C2_32  and  N_72 
REMARK       I    between atoms: C7_33  and  C8_39 
REMARK       I    between atoms: C7_33  and  N_52 
REMARK       I    between atoms: C1_34  and  O4_86 
REMARK       I    between atoms: C3_36  and  O3_87 
REMARK       I    between atoms: C2_47  and  O2_85 
REMARK       I    between atoms: N_52  and  C2_71 
REMARK       I    between atoms: C3_53  and  O3_81 
REMARK       I    between atoms: C1_56  and  O3_81 
REMARK       I    between atoms: C7_57  and  C8_64 
REMARK       I    between atoms: C7_57  and  N_63 
REMARK       I    between atoms: C8_58  and  C7_73 
REMARK       I    between atoms: C1_59  and  O1_68 
REMARK       I    between atoms: N_63  and  C2_67 
REMARK       I    between atoms: C4_69  and  O4_86 
REMARK       I    between atoms: N_72  and  C7_73 
REMARK       I    between atoms: C2_77  and  O2_82 
ROOT
ATOM      1  OSB ASG d 302      15.756  40.283  47.066  0.00  0.00    -0.572 OA
ATOM      2  O6  ASG d 302      18.684  38.432  44.361  0.00  0.00    -0.398 OA
ATOM      3  O4  ASG d 302      16.321  38.036  47.969  0.00  0.00    -0.246 OA
ATOM      4  S   ASG d 302      15.300  39.269  47.997  0.00  0.00     0.252 S 
ATOM      5  C6  ASG d 302      17.728  38.518  45.414  0.00  0.00     0.043 C 
ATOM      6  C2  ASG d 302      17.334  35.430  48.363  0.00  0.00     0.087 C 
ATOM      7  C1  ASG d 302      18.578  35.580  47.500  0.00  0.00     0.154 C 
ATOM      8  O5  ASG d 302      18.651  36.884  46.881  0.00  0.00    -0.349 OA
ATOM      9  C5  ASG d 302      17.507  37.166  46.042  0.00  0.00     0.090 C 
ATOM     10  O7  ASG d 302      17.057  34.744  51.146  0.00  0.00    -0.274 OA
ATOM     11  C3  ASG d 302      16.126  35.669  47.475  0.00  0.00     0.094 C 
ATOM     12  C8  ASG d 302      17.101  32.387  50.688  0.00  0.00    -0.003 C 
ATOM     13  OSA ASG d 302      13.969  38.827  47.622  0.00  0.00    -0.572 OA
ATOM     14  N   ASG d 302      17.282  34.057  48.947  0.00  0.00    -0.349 N 
ATOM     15  C7  ASG d 302      17.142  33.852  50.317  0.00  0.00     0.214 C 
ATOM     16  OSC ASG d 302      15.265  39.824  49.331  0.00  0.00    -0.572 OA
ATOM     17  O3  ASG d 302      15.000  35.592  48.273  0.00  0.00    -0.348 OA
ATOM     18  C4  ASG d 302      16.220  37.088  46.889  0.00  0.00     0.114 C 
ATOM     19  H   ASG d 302      18.813  39.309  43.970  0.00  0.00     0.209 HD
ATOM     20  H   ASG d 302      16.801  38.878  45.020  0.00  0.00     0.078 H 
ATOM     21  H   ASG d 302      18.098  39.189  46.162  0.00  0.00     0.078 H 
ATOM     22  H   ASG d 302      17.347  36.134  49.169  0.00  0.00     0.084 H 
ATOM     23  H   ASG d 302      18.527  34.835  46.734  0.00  0.00     0.132 H 
ATOM     24  H   ASG d 302      17.392  36.448  45.257  0.00  0.00     0.090 H 
ATOM     25  H   ASG d 302      16.084  34.950  46.684  0.00  0.00     0.091 H 
ATOM     26  H   ASG d 302      16.992  32.290  51.747  0.00  0.00     0.040 H 
ATOM     27  H   ASG d 302      18.010  31.915  50.377  0.00  0.00     0.040 H 
ATOM     28  H   ASG d 302      16.272  31.919  50.200  0.00  0.00     0.040 H 
ATOM     29  H   ASG d 302      17.349  33.278  48.350  0.00  0.00     0.163 HD
ATOM     30  H   ASG d 302      15.358  37.306  46.294  0.00  0.00     0.093 H 
ATOM     31  C6  BDP d 303      12.143  34.522  44.688  0.00  0.00     0.206 C 
ATOM     32  O4  BDP d 303      10.486  33.026  46.649  0.00  0.00    -0.348 OA
ATOM     33  O3  BDP d 303      10.906  33.426  49.421  0.00  0.00    -0.390 OA
ATOM     34  C3  BDP d 303      11.963  33.507  48.451  0.00  0.00     0.092 C 
ATOM     35  O6B BDP d 303      11.410  35.530  44.654  0.00  0.00    -0.646 OA
ATOM     36  C4  BDP d 303      11.405  33.964  47.095  0.00  0.00     0.103 C 
ATOM     37  C2  BDP d 303      12.979  34.533  48.913  0.00  0.00     0.110 C 
ATOM     38  O6A BDP d 303      12.583  33.821  43.748  0.00  0.00    -0.646 OA
ATOM     39  C1  BDP d 303      14.086  34.632  47.876  0.00  0.00     0.160 C 
ATOM     40  C5  BDP d 303      12.574  34.059  46.078  0.00  0.00     0.152 C 
ATOM     41  O5  BDP d 303      13.562  35.005  46.574  0.00  0.00    -0.340 OA
ATOM     42  O2  BDP d 303      13.552  34.139  50.164  0.00  0.00    -0.388 OA
ATOM     43  H   BDP d 303      11.270  33.136  50.271  0.00  0.00     0.210 HD
ATOM     44  H   BDP d 303      12.413  32.542  48.349  0.00  0.00     0.091 H 
ATOM     45  H   BDP d 303      10.931  34.919  47.194  0.00  0.00     0.092 H 
ATOM     46  H   BDP d 303      12.491  35.478  49.033  0.00  0.00     0.094 H 
ATOM     47  H   BDP d 303      14.551  33.672  47.797  0.00  0.00     0.133 H 
ATOM     48  H   BDP d 303      12.969  33.069  45.983  0.00  0.00     0.104 H 
ATOM     49  H   BDP d 303      13.996  33.283  50.061  0.00  0.00     0.210 HD
ATOM     50  C1  ASG d 306       5.943  35.669  39.097  0.00  0.00     0.151 C 
ATOM     51  C4  ASG d 306       4.891  38.115  37.869  0.00  0.00     0.089 C 
ATOM     52  C6  ASG d 306       4.950  39.067  40.226  0.00  0.00     0.043 C 
ATOM     53  S   ASG d 306       2.456  38.787  37.358  0.00  0.00     0.252 S 
ATOM     54  O4  ASG d 306       3.507  37.795  38.016  0.00  0.00    -0.249 OA
ATOM     55  OSB ASG d 306       1.117  38.280  37.594  0.00  0.00    -0.572 OA
ATOM     56  OSA ASG d 306       2.590  40.098  37.968  0.00  0.00    -0.572 OA
ATOM     57  C3  ASG d 306       5.545  37.043  36.925  0.00  0.00    -0.014 C 
ATOM     58  C7  ASG d 306       5.320  33.299  36.760  0.00  0.00     0.214 C 
ATOM     59  N   ASG d 306       5.995  34.505  36.960  0.00  0.00    -0.352 N 
ATOM     60  C8  ASG d 306       6.140  32.296  35.988  0.00  0.00    -0.003 C 
ATOM     61  C2  ASG d 306       5.364  35.633  37.716  0.00  0.00     0.062 C 
ATOM     62  O5  ASG d 306       5.360  36.741  39.874  0.00  0.00    -0.349 OA
ATOM     63  O6  ASG d 306       5.501  38.924  41.534  0.00  0.00    -0.398 OA
ATOM     64  O7  ASG d 306       4.186  33.059  37.166  0.00  0.00    -0.274 OA
ATOM     65  OSC ASG d 306       2.702  38.885  35.937  0.00  0.00    -0.572 OA
ATOM     66  C5  ASG d 306       5.556  38.059  39.275  0.00  0.00     0.088 C 
ATOM     67  H   ASG d 306       6.996  35.848  39.037  0.00  0.00     0.132 H 
ATOM     68  H   ASG d 306       5.021  39.091  37.449  0.00  0.00     0.089 H 
ATOM     69  H   ASG d 306       3.891  38.914  40.273  0.00  0.00     0.078 H 
ATOM     70  H   ASG d 306       5.167  40.052  39.868  0.00  0.00     0.078 H 
ATOM     71  H   ASG d 306       6.582  37.258  36.771  0.00  0.00     0.040 H 
ATOM     72  H   ASG d 306       5.091  37.025  35.957  0.00  0.00     0.040 H 
ATOM     73  H   ASG d 306       6.904  34.616  36.598  0.00  0.00     0.163 HD
ATOM     74  H   ASG d 306       7.088  32.726  35.741  0.00  0.00     0.040 H 
ATOM     75  H   ASG d 306       5.624  32.029  35.090  0.00  0.00     0.040 H 
ATOM     76  H   ASG d 306       6.290  31.421  36.587  0.00  0.00     0.040 H 
ATOM     77  H   ASG d 306       4.308  35.474  37.795  0.00  0.00     0.080 H 
ATOM     78  H   ASG d 306       5.310  38.035  41.871  0.00  0.00     0.209 HD
ATOM     79  H   ASG d 306       6.595  38.275  39.130  0.00  0.00     0.090 H 
ATOM     80  C5  BDP d 305       6.927  32.823  41.009  0.00  0.00     0.152 C 
ATOM     81  O6B BDP d 305       9.028  33.871  40.971  0.00  0.00    -0.646 OA
ATOM     82  C6  BDP d 305       8.247  33.148  40.324  0.00  0.00     0.206 C 
ATOM     83  O4  BDP d 305       5.697  34.444  39.709  0.00  0.00    -0.348 OA
ATOM     84  O3  BDP d 305       3.679  34.645  41.701  0.00  0.00    -0.390 OA
ATOM     85  C2  BDP d 305       4.986  33.247  43.132  0.00  0.00     0.110 C 
ATOM     86  C1  BDP d 305       6.021  32.111  43.159  0.00  0.00     0.160 C 
ATOM     87  C4  BDP d 305       5.932  34.007  40.997  0.00  0.00     0.103 C 
ATOM     88  O6A BDP d 305       8.380  32.644  39.182  0.00  0.00    -0.646 OA
ATOM     89  C3  BDP d 305       4.628  33.577  41.697  0.00  0.00     0.092 C 
ATOM     90  O2  BDP d 305       3.835  32.828  43.870  0.00  0.00    -0.388 OA
ATOM     91  O5  BDP d 305       7.213  32.473  42.398  0.00  0.00    -0.340 OA
ATOM     92  H   BDP d 305       6.469  32.019  40.472  0.00  0.00     0.104 H 
ATOM     93  H   BDP d 305       2.867  34.355  42.145  0.00  0.00     0.210 HD
ATOM     94  H   BDP d 305       5.387  34.131  43.582  0.00  0.00     0.094 H 
ATOM     95  H   BDP d 305       5.571  31.248  42.714  0.00  0.00     0.133 H 
ATOM     96  H   BDP d 305       6.355  34.831  41.532  0.00  0.00     0.092 H 
ATOM     97  H   BDP d 305       4.197  32.743  41.185  0.00  0.00     0.091 H 
ATOM     98  H   BDP d 305       3.468  32.025  43.467  0.00  0.00     0.210 HD
ATOM     99  O6B BDP d 301      21.101  32.113  47.626  0.00  0.00    -0.646 OA
ATOM    100  C6  BDP d 301      20.869  32.793  48.650  0.00  0.00     0.206 C 
ATOM    101  O6A BDP d 301      20.154  32.530  49.641  0.00  0.00    -0.646 OA
ATOM    102  O5  BDP d 301      22.964  33.957  48.404  0.00  0.00    -0.340 OA
ATOM    103  C5  BDP d 301      21.563  34.148  48.704  0.00  0.00     0.152 C 
ATOM    104  C3  BDP d 301      21.766  36.502  47.869  0.00  0.00     0.092 C 
ATOM    105  C1  BDP d 301      23.733  35.198  48.443  0.00  0.00     0.156 C 
ATOM    106  O1  BDP d 301      25.168  34.828  48.158  0.00  0.00    -0.368 OA
ATOM    107  C4  BDP d 301      20.953  35.188  47.763  0.00  0.00     0.103 C 
ATOM    108  C2  BDP d 301      23.209  36.221  47.477  0.00  0.00     0.110 C 
ATOM    109  O2  BDP d 301      24.014  37.394  47.581  0.00  0.00    -0.388 OA
ATOM    110  O4  BDP d 301      19.691  35.419  48.277  0.00  0.00    -0.348 OA
ATOM    111  O3  BDP d 301      21.227  37.482  46.979  0.00  0.00    -0.390 OA
ATOM    112  H   BDP d 301      21.430  34.541  49.690  0.00  0.00     0.104 H 
ATOM    113  H   BDP d 301      21.717  36.871  48.872  0.00  0.00     0.091 H 
ATOM    114  H   BDP d 301      23.648  35.662  49.403  0.00  0.00     0.133 H 
ATOM    115  H   BDP d 301      25.227  34.410  47.285  0.00  0.00     0.212 HD
ATOM    116  H   BDP d 301      20.943  34.863  46.744  0.00  0.00     0.092 H 
ATOM    117  H   BDP d 301      23.246  35.881  46.463  0.00  0.00     0.094 H 
ATOM    118  H   BDP d 301      23.994  37.720  48.494  0.00  0.00     0.210 HD
ATOM    119  H   BDP d 301      21.269  37.150  46.068  0.00  0.00     0.210 HD
ATOM    120  OSC ASG d 304       4.799  30.443  48.490  0.00  0.00    -0.572 OA
ATOM    121  O3  ASG d 304       6.395  31.825  44.490  0.00  0.00    -0.348 OA
ATOM    122  C5  ASG d 304       7.158  34.353  47.181  0.00  0.00     0.090 C 
ATOM    123  C6  ASG d 304       6.524  34.803  48.474  0.00  0.00     0.043 C 
ATOM    124  O4  ASG d 304       6.228  32.114  47.340  0.00  0.00    -0.246 OA
ATOM    125  C7  ASG d 304      10.208  30.986  44.266  0.00  0.00     0.214 C 
ATOM    126  C8  ASG d 304      10.825  30.796  42.899  0.00  0.00    -0.003 C 
ATOM    127  S   ASG d 304       4.743  31.662  47.708  0.00  0.00     0.252 S 
ATOM    128  OSB ASG d 304       4.085  32.703  48.477  0.00  0.00    -0.572 OA
ATOM    129  N   ASG d 304       9.241  31.981  44.285  0.00  0.00    -0.349 N 
ATOM    130  C4  ASG d 304       6.351  33.246  46.464  0.00  0.00     0.114 C 
ATOM    131  C3  ASG d 304       7.101  32.846  45.176  0.00  0.00     0.094 C 
ATOM    132  C1  ASG d 304       9.225  33.466  46.279  0.00  0.00     0.154 C 
ATOM    133  O7  ASG d 304      10.537  30.328  45.240  0.00  0.00    -0.274 OA
ATOM    134  O6  ASG d 304       7.032  36.079  48.868  0.00  0.00    -0.398 OA
ATOM    135  O5  ASG d 304       8.505  33.877  47.479  0.00  0.00    -0.349 OA
ATOM    136  C2  ASG d 304       8.492  32.347  45.533  0.00  0.00     0.087 C 
ATOM    137  OSA ASG d 304       3.988  31.427  46.488  0.00  0.00    -0.572 OA
ATOM    138  H   ASG d 304       7.180  35.186  46.511  0.00  0.00     0.090 H 
ATOM    139  H   ASG d 304       6.740  34.088  49.239  0.00  0.00     0.078 H 
ATOM    140  H   ASG d 304       5.467  34.884  48.328  0.00  0.00     0.078 H 
ATOM    141  H   ASG d 304      10.380  31.482  42.208  0.00  0.00     0.040 H 
ATOM    142  H   ASG d 304      10.655  29.794  42.567  0.00  0.00     0.040 H 
ATOM    143  H   ASG d 304      11.878  30.980  42.954  0.00  0.00     0.040 H 
ATOM    144  H   ASG d 304       9.040  32.463  43.451  0.00  0.00     0.163 HD
ATOM    145  H   ASG d 304       5.372  33.596  46.209  0.00  0.00     0.093 H 
ATOM    146  H   ASG d 304       7.176  33.704  44.541  0.00  0.00     0.091 H 
ATOM    147  H   ASG d 304       9.293  34.306  45.619  0.00  0.00     0.132 H 
ATOM    148  H   ASG d 304       7.991  36.018  49.003  0.00  0.00     0.209 HD
ATOM    149  H   ASG d 304       8.424  31.476  46.151  0.00  0.00     0.084 H 
ENDROOT
TORSDOF 38
ENDMDL
MODEL 31
REMARK VINA RESULT:      -6.3      2.531      3.385
REMARK  0 active torsions:
REMARK  status: ('A' for Active; 'I' for Inactive)
REMARK       I    between atoms: C6_2  and  C5_74 
REMARK       I    between atoms: C1_3  and  O4_24 
REMARK       I    between atoms: O6_4  and  C6_26 
REMARK       I    between atoms: C5_5  and  C6_12 
REMARK       I    between atoms: C4_6  and  O4_22 
REMARK       I    between atoms: C6_8  and  C5_90 
REMARK       I    between atoms: C6_8  and  O6_83 
REMARK       I    between atoms: O3_11  and  C3_60 
REMARK       I    between atoms: O3_11  and  C1_29 
REMARK       I    between atoms: C5_13  and  C6_18 
REMARK       I    between atoms: O4_14  and  C4_88 
REMARK       I    between atoms: O4_14  and  S_15 
REMARK       I    between atoms: C6_16  and  C5_28 
REMARK       I    between atoms: S_17  and  O4_22 
REMARK       I    between atoms: C6_18  and  O6_66 
REMARK       I    between atoms: O4_20  and  C4_46 
REMARK       I    between atoms: O4_20  and  C1_61 
REMARK       I    between atoms: O4_21  and  C4_54 
REMARK       I    between atoms: O4_21  and  S_40 
REMARK       I    between atoms: O4_24  and  C4_35 
REMARK       I    between atoms: O3_25  and  C3_48 
REMARK       I    between atoms: C6_26  and  C5_50 
REMARK       I    between atoms: C2_27  and  O2_55 
REMARK       I    between atoms: O3_31  and  C3_37 
REMARK       I    between atoms: C2_32  and  N_72 
REMARK       I    between atoms: C7_33  and  C8_39 
REMARK       I    between atoms: C7_33  and  N_52 
REMARK       I    between atoms: C1_34  and  O4_86 
REMARK       I    between atoms: C3_36  and  O3_87 
REMARK       I    between atoms: C2_47  and  O2_85 
REMARK       I    between atoms: N_52  and  C2_71 
REMARK       I    between atoms: C3_53  and  O3_81 
REMARK       I    between atoms: C1_56  and  O3_81 
REMARK       I    between atoms: C7_57  and  C8_64 
REMARK       I    between atoms: C7_57  and  N_63 
REMARK       I    between atoms: C8_58  and  C7_73 
REMARK       I    between atoms: C1_59  and  O1_68 
REMARK       I    between atoms: N_63  and  C2_67 
REMARK       I    between atoms: C4_69  and  O4_86 
REMARK       I    between atoms: N_72  and  C7_73 
REMARK       I    between atoms: C2_77  and  O2_82 
ROOT
ATOM      1  OSB ASG d 302      17.345  41.151  47.745  0.00  0.00    -0.572 OA
ATOM      2  O6  ASG d 302      16.674  39.151  43.890  0.00  0.00    -0.398 OA
ATOM      3  O4  ASG d 302      18.489  38.944  47.816  0.00  0.00    -0.246 OA
ATOM      4  S   ASG d 302      17.927  40.185  48.657  0.00  0.00     0.252 S 
ATOM      5  C6  ASG d 302      17.056  39.294  45.255  0.00  0.00     0.043 C 
ATOM      6  C2  ASG d 302      19.453  36.352  47.250  0.00  0.00     0.087 C 
ATOM      7  C1  ASG d 302      19.377  36.450  45.733  0.00  0.00     0.154 C 
ATOM      8  O5  ASG d 302      18.846  37.724  45.302  0.00  0.00    -0.349 OA
ATOM      9  C5  ASG d 302      17.517  37.975  45.818  0.00  0.00     0.090 C 
ATOM     10  O7  ASG d 302      21.687  35.799  48.980  0.00  0.00    -0.274 OA
ATOM     11  C3  ASG d 302      18.052  36.558  47.795  0.00  0.00     0.094 C 
ATOM     12  C8  ASG d 302      21.406  33.423  48.775  0.00  0.00    -0.003 C 
ATOM     13  OSA ASG d 302      16.919  39.737  49.600  0.00  0.00    -0.572 OA
ATOM     14  N   ASG d 302      19.969  35.008  47.647  0.00  0.00    -0.349 N 
ATOM     15  C7  ASG d 302      21.062  34.868  48.498  0.00  0.00     0.214 C 
ATOM     16  OSC ASG d 302      19.018  40.803  49.377  0.00  0.00    -0.572 OA
ATOM     17  O3  ASG d 302      18.133  36.528  49.174  0.00  0.00    -0.348 OA
ATOM     18  C4  ASG d 302      17.554  37.947  47.360  0.00  0.00     0.114 C 
ATOM     19  H   ASG d 302      16.381  40.008  43.545  0.00  0.00     0.209 HD
ATOM     20  H   ASG d 302      16.217  39.643  45.820  0.00  0.00     0.078 H 
ATOM     21  H   ASG d 302      17.861  39.997  45.317  0.00  0.00     0.078 H 
ATOM     22  H   ASG d 302      20.118  37.092  47.643  0.00  0.00     0.084 H 
ATOM     23  H   ASG d 302      18.727  35.671  45.394  0.00  0.00     0.132 H 
ATOM     24  H   ASG d 302      16.818  37.222  45.522  0.00  0.00     0.090 H 
ATOM     25  H   ASG d 302      17.385  35.803  47.434  0.00  0.00     0.091 H 
ATOM     26  H   ASG d 302      22.249  33.377  49.432  0.00  0.00     0.040 H 
ATOM     27  H   ASG d 302      21.642  32.930  47.856  0.00  0.00     0.040 H 
ATOM     28  H   ASG d 302      20.570  32.940  49.235  0.00  0.00     0.040 H 
ATOM     29  H   ASG d 302      19.526  34.201  47.298  0.00  0.00     0.163 HD
ATOM     30  H   ASG d 302      16.585  38.144  47.768  0.00  0.00     0.093 H 
ATOM     31  C6  BDP d 303      13.618  35.314  49.730  0.00  0.00     0.206 C 
ATOM     32  O4  BDP d 303      14.452  33.925  52.221  0.00  0.00    -0.348 OA
ATOM     33  O3  BDP d 303      17.008  34.451  53.321  0.00  0.00    -0.390 OA
ATOM     34  C3  BDP d 303      16.745  34.478  51.909  0.00  0.00     0.092 C 
ATOM     35  O6B BDP d 303      13.164  36.325  50.301  0.00  0.00    -0.646 OA
ATOM     36  C4  BDP d 303      15.285  34.876  51.649  0.00  0.00     0.103 C 
ATOM     37  C2  BDP d 303      17.639  35.516  51.260  0.00  0.00     0.110 C 
ATOM     38  O6A BDP d 303      13.081  34.566  48.881  0.00  0.00    -0.646 OA
ATOM     39  C1  BDP d 303      17.345  35.558  49.769  0.00  0.00     0.160 C 
ATOM     40  C5  BDP d 303      15.040  34.913  50.116  0.00  0.00     0.152 C 
ATOM     41  O5  BDP d 303      15.951  35.873  49.512  0.00  0.00    -0.340 OA
ATOM     42  O2  BDP d 303      19.016  35.177  51.450  0.00  0.00    -0.388 OA
ATOM     43  H   BDP d 303      17.931  34.199  53.473  0.00  0.00     0.210 HD
ATOM     44  H   BDP d 303      16.932  33.506  51.504  0.00  0.00     0.091 H 
ATOM     45  H   BDP d 303      15.083  35.838  52.072  0.00  0.00     0.092 H 
ATOM     46  H   BDP d 303      17.448  36.470  51.707  0.00  0.00     0.094 H 
ATOM     47  H   BDP d 303      17.559  34.592  49.363  0.00  0.00     0.133 H 
ATOM     48  H   BDP d 303      15.205  33.916  49.762  0.00  0.00     0.104 H 
ATOM     49  H   BDP d 303      19.196  34.314  51.046  0.00  0.00     0.210 HD
ATOM     50  C1  ASG d 306       5.552  36.247  51.985  0.00  0.00     0.151 C 
ATOM     51  C4  ASG d 306       3.867  38.641  52.148  0.00  0.00     0.089 C 
ATOM     52  C6  ASG d 306       5.861  39.702  53.318  0.00  0.00     0.043 C 
ATOM     53  S   ASG d 306       2.119  39.308  53.920  0.00  0.00     0.252 S 
ATOM     54  O4  ASG d 306       3.268  38.340  53.410  0.00  0.00    -0.249 OA
ATOM     55  OSB ASG d 306       1.625  38.823  55.196  0.00  0.00    -0.572 OA
ATOM     56  OSA ASG d 306       2.659  40.645  54.087  0.00  0.00    -0.572 OA
ATOM     57  C3  ASG d 306       3.453  37.520  51.128  0.00  0.00    -0.014 C 
ATOM     58  C7  ASG d 306       3.327  33.775  51.351  0.00  0.00     0.214 C 
ATOM     59  N   ASG d 306       3.812  34.984  50.846  0.00  0.00    -0.352 N 
ATOM     60  C8  ASG d 306       3.144  32.730  50.278  0.00  0.00    -0.003 C 
ATOM     61  C2  ASG d 306       4.077  36.150  51.746  0.00  0.00     0.062 C 
ATOM     62  O5  ASG d 306       5.863  37.359  52.857  0.00  0.00    -0.349 OA
ATOM     63  O6  ASG d 306       7.266  39.617  53.548  0.00  0.00    -0.398 OA
ATOM     64  O7  ASG d 306       3.078  33.563  52.534  0.00  0.00    -0.274 OA
ATOM     65  OSC ASG d 306       1.042  39.337  52.955  0.00  0.00    -0.572 OA
ATOM     66  C5  ASG d 306       5.413  38.646  52.332  0.00  0.00     0.088 C 
ATOM     67  H   ASG d 306       6.054  36.414  51.055  0.00  0.00     0.132 H 
ATOM     68  H   ASG d 306       3.546  39.595  51.784  0.00  0.00     0.089 H 
ATOM     69  H   ASG d 306       5.343  39.560  54.244  0.00  0.00     0.078 H 
ATOM     70  H   ASG d 306       5.638  40.667  52.912  0.00  0.00     0.078 H 
ATOM     71  H   ASG d 306       3.865  37.720  50.161  0.00  0.00     0.040 H 
ATOM     72  H   ASG d 306       2.393  37.461  51.000  0.00  0.00     0.040 H 
ATOM     73  H   ASG d 306       3.983  35.070  49.880  0.00  0.00     0.163 HD
ATOM     74  H   ASG d 306       3.423  33.140  49.330  0.00  0.00     0.040 H 
ATOM     75  H   ASG d 306       2.119  32.425  50.248  0.00  0.00     0.040 H 
ATOM     76  H   ASG d 306       3.762  31.884  50.496  0.00  0.00     0.040 H 
ATOM     77  H   ASG d 306       3.589  36.004  52.687  0.00  0.00     0.080 H 
ATOM     78  H   ASG d 306       7.481  38.745  53.917  0.00  0.00     0.209 HD
ATOM     79  H   ASG d 306       5.833  38.846  51.368  0.00  0.00     0.090 H 
ATOM     80  C5  BDP d 305       7.795  33.486  52.255  0.00  0.00     0.152 C 
ATOM     81  O6B BDP d 305       8.841  34.514  50.422  0.00  0.00    -0.646 OA
ATOM     82  C6  BDP d 305       7.904  33.767  50.763  0.00  0.00     0.206 C 
ATOM     83  O4  BDP d 305       5.983  35.054  52.557  0.00  0.00    -0.348 OA
ATOM     84  O3  BDP d 305       6.592  35.365  55.316  0.00  0.00    -0.390 OA
ATOM     85  C2  BDP d 305       8.548  34.024  55.011  0.00  0.00     0.110 C 
ATOM     86  C1  BDP d 305       9.159  32.883  54.185  0.00  0.00     0.160 C 
ATOM     87  C4  BDP d 305       7.215  34.676  53.055  0.00  0.00     0.103 C 
ATOM     88  O6A BDP d 305       7.025  33.209  50.061  0.00  0.00    -0.646 OA
ATOM     89  C3  BDP d 305       7.130  34.290  54.543  0.00  0.00     0.092 C 
ATOM     90  O2  BDP d 305       8.576  33.650  56.391  0.00  0.00    -0.388 OA
ATOM     91  O5  BDP d 305       9.135  33.199  52.760  0.00  0.00    -0.340 OA
ATOM     92  H   BDP d 305       7.126  32.661  52.384  0.00  0.00     0.104 H 
ATOM     93  H   BDP d 305       6.547  35.102  56.249  0.00  0.00     0.210 HD
ATOM     94  H   BDP d 305       9.109  34.926  54.882  0.00  0.00     0.094 H 
ATOM     95  H   BDP d 305       8.574  32.004  54.358  0.00  0.00     0.133 H 
ATOM     96  H   BDP d 305       7.862  35.521  52.953  0.00  0.00     0.092 H 
ATOM     97  H   BDP d 305       6.497  33.436  54.664  0.00  0.00     0.091 H 
ATOM     98  H   BDP d 305       8.068  32.833  56.514  0.00  0.00     0.210 HD
ATOM     99  O6B BDP d 301      20.946  32.973  43.772  0.00  0.00    -0.646 OA
ATOM    100  C6  BDP d 301      21.666  33.703  44.489  0.00  0.00     0.206 C 
ATOM    101  O6A BDP d 301      22.135  33.492  45.629  0.00  0.00    -0.646 OA
ATOM    102  O5  BDP d 301      22.528  34.837  42.547  0.00  0.00    -0.340 OA
ATOM    103  C5  BDP d 301      22.032  35.053  43.887  0.00  0.00     0.152 C 
ATOM    104  C3  BDP d 301      21.349  37.364  43.197  0.00  0.00     0.092 C 
ATOM    105  C1  BDP d 301      22.925  36.072  41.876  0.00  0.00     0.156 C 
ATOM    106  O1  BDP d 301      23.459  35.677  40.521  0.00  0.00    -0.368 OA
ATOM    107  C4  BDP d 301      20.875  36.052  43.872  0.00  0.00     0.103 C 
ATOM    108  C2  BDP d 301      21.793  37.052  41.776  0.00  0.00     0.110 C 
ATOM    109  O2  BDP d 301      22.266  38.222  41.112  0.00  0.00    -0.388 OA
ATOM    110  O4  BDP d 301      20.631  36.317  45.206  0.00  0.00    -0.348 OA
ATOM    111  O3  BDP d 301      20.274  38.305  43.152  0.00  0.00    -0.390 OA
ATOM    112  H   BDP d 301      22.782  35.493  44.509  0.00  0.00     0.104 H 
ATOM    113  H   BDP d 301      22.159  37.779  43.759  0.00  0.00     0.091 H 
ATOM    114  H   BDP d 301      23.677  36.581  42.443  0.00  0.00     0.133 H 
ATOM    115  H   BDP d 301      22.766  35.218  40.022  0.00  0.00     0.212 HD
ATOM    116  H   BDP d 301      20.018  35.680  43.351  0.00  0.00     0.092 H 
ATOM    117  H   BDP d 301      20.966  36.665  41.218  0.00  0.00     0.094 H 
ATOM    118  H   BDP d 301      23.017  38.591  41.602  0.00  0.00     0.210 HD
ATOM    119  H   BDP d 301      19.538  37.930  42.644  0.00  0.00     0.210 HD
ATOM    120  OSC ASG d 304      13.085  31.478  58.098  0.00  0.00    -0.572 OA
ATOM    121  O3  ASG d 304      10.495  32.657  54.582  0.00  0.00    -0.348 OA
ATOM    122  C5  ASG d 304      13.089  35.302  55.281  0.00  0.00     0.090 C 
ATOM    123  C6  ASG d 304      13.831  35.818  56.489  0.00  0.00     0.043 C 
ATOM    124  O4  ASG d 304      12.810  33.081  56.224  0.00  0.00    -0.246 OA
ATOM    125  C7  ASG d 304      12.360  31.777  51.258  0.00  0.00     0.214 C 
ATOM    126  C8  ASG d 304      11.536  31.519  50.017  0.00  0.00    -0.003 C 
ATOM    127  S   ASG d 304      12.349  32.658  57.693  0.00  0.00     0.252 S 
ATOM    128  OSB ASG d 304      12.614  33.740  58.625  0.00  0.00    -0.572 OA
ATOM    129  N   ASG d 304      11.827  32.780  52.056  0.00  0.00    -0.349 N 
ATOM    130  C4  ASG d 304      12.093  34.169  55.620  0.00  0.00     0.114 C 
ATOM    131  C3  ASG d 304      11.415  33.703  54.315  0.00  0.00     0.094 C 
ATOM    132  C1  ASG d 304      13.454  34.357  53.080  0.00  0.00     0.154 C 
ATOM    133  O7  ASG d 304      13.382  31.164  51.516  0.00  0.00    -0.274 OA
ATOM    134  O6  ASG d 304      14.389  37.107  56.227  0.00  0.00    -0.398 OA
ATOM    135  O5  ASG d 304      14.073  34.830  54.312  0.00  0.00    -0.349 OA
ATOM    136  C2  ASG d 304      12.473  33.210  53.341  0.00  0.00     0.087 C 
ATOM    137  OSA ASG d 304      10.924  32.373  57.693  0.00  0.00    -0.572 OA
ATOM    138  H   ASG d 304      12.504  36.103  54.881  0.00  0.00     0.090 H 
ATOM    139  H   ASG d 304      14.619  35.138  56.734  0.00  0.00     0.078 H 
ATOM    140  H   ASG d 304      13.144  35.900  57.305  0.00  0.00     0.078 H 
ATOM    141  H   ASG d 304      10.690  32.175  50.007  0.00  0.00     0.040 H 
ATOM    142  H   ASG d 304      11.200  30.504  50.017  0.00  0.00     0.040 H 
ATOM    143  H   ASG d 304      12.135  31.696  49.148  0.00  0.00     0.040 H 
ATOM    144  H   ASG d 304      10.997  33.224  51.769  0.00  0.00     0.163 HD
ATOM    145  H   ASG d 304      11.345  34.515  56.304  0.00  0.00     0.093 H 
ATOM    146  H   ASG d 304      10.886  34.529  53.887  0.00  0.00     0.091 H 
ATOM    147  H   ASG d 304      12.901  35.164  52.646  0.00  0.00     0.132 H 
ATOM    148  H   ASG d 304      15.015  37.044  55.488  0.00  0.00     0.209 HD
ATOM    149  H   ASG d 304      12.991  32.370  53.754  0.00  0.00     0.084 H 
ENDROOT
TORSDOF 38
ENDMDL
MODEL 32
REMARK VINA RESULT:      -6.3      6.993     17.141
REMARK  0 active torsions:
REMARK  status: ('A' for Active; 'I' for Inactive)
REMARK       I    between atoms: C6_2  and  C5_74 
REMARK       I    between atoms: C1_3  and  O4_24 
REMARK       I    between atoms: O6_4  and  C6_26 
REMARK       I    between atoms: C5_5  and  C6_12 
REMARK       I    between atoms: C4_6  and  O4_22 
REMARK       I    between atoms: C6_8  and  C5_90 
REMARK       I    between atoms: C6_8  and  O6_83 
REMARK       I    between atoms: O3_11  and  C3_60 
REMARK       I    between atoms: O3_11  and  C1_29 
REMARK       I    between atoms: C5_13  and  C6_18 
REMARK       I    between atoms: O4_14  and  C4_88 
REMARK       I    between atoms: O4_14  and  S_15 
REMARK       I    between atoms: C6_16  and  C5_28 
REMARK       I    between atoms: S_17  and  O4_22 
REMARK       I    between atoms: C6_18  and  O6_66 
REMARK       I    between atoms: O4_20  and  C4_46 
REMARK       I    between atoms: O4_20  and  C1_61 
REMARK       I    between atoms: O4_21  and  C4_54 
REMARK       I    between atoms: O4_21  and  S_40 
REMARK       I    between atoms: O4_24  and  C4_35 
REMARK       I    between atoms: O3_25  and  C3_48 
REMARK       I    between atoms: C6_26  and  C5_50 
REMARK       I    between atoms: C2_27  and  O2_55 
REMARK       I    between atoms: O3_31  and  C3_37 
REMARK       I    between atoms: C2_32  and  N_72 
REMARK       I    between atoms: C7_33  and  C8_39 
REMARK       I    between atoms: C7_33  and  N_52 
REMARK       I    between atoms: C1_34  and  O4_86 
REMARK       I    between atoms: C3_36  and  O3_87 
REMARK       I    between atoms: C2_47  and  O2_85 
REMARK       I    between atoms: N_52  and  C2_71 
REMARK       I    between atoms: C3_53  and  O3_81 
REMARK       I    between atoms: C1_56  and  O3_81 
REMARK       I    between atoms: C7_57  and  C8_64 
REMARK       I    between atoms: C7_57  and  N_63 
REMARK       I    between atoms: C8_58  and  C7_73 
REMARK       I    between atoms: C1_59  and  O1_68 
REMARK       I    between atoms: N_63  and  C2_67 
REMARK       I    between atoms: C4_69  and  O4_86 
REMARK       I    between atoms: N_72  and  C7_73 
REMARK       I    between atoms: C2_77  and  O2_82 
ROOT
ATOM      1  OSB ASG d 302       1.489  39.095  47.968  0.00  0.00    -0.572 OA
ATOM      2  O6  ASG d 302       4.133  38.883  51.472  0.00  0.00    -0.398 OA
ATOM      3  O4  ASG d 302       1.747  36.701  48.591  0.00  0.00    -0.246 OA
ATOM      4  S   ASG d 302       1.301  37.748  47.465  0.00  0.00     0.252 S 
ATOM      5  C6  ASG d 302       3.387  38.420  50.350  0.00  0.00     0.043 C 
ATOM      6  C2  ASG d 302       2.527  34.259  49.774  0.00  0.00     0.087 C 
ATOM      7  C1  ASG d 302       2.939  34.827  51.124  0.00  0.00     0.154 C 
ATOM      8  O5  ASG d 302       2.792  36.265  51.171  0.00  0.00    -0.349 OA
ATOM      9  C5  ASG d 302       3.579  36.937  50.161  0.00  0.00     0.090 C 
ATOM     10  O7  ASG d 302       0.578  32.247  49.106  0.00  0.00    -0.274 OA
ATOM     11  C3  ASG d 302       3.389  34.920  48.714  0.00  0.00     0.094 C 
ATOM     12  C8  ASG d 302       2.140  30.456  49.455  0.00  0.00    -0.003 C 
ATOM     13  OSA ASG d 302       2.096  37.562  46.265  0.00  0.00    -0.572 OA
ATOM     14  N   ASG d 302       2.733  32.780  49.760  0.00  0.00    -0.349 N 
ATOM     15  C7  ASG d 302       1.709  31.903  49.414  0.00  0.00     0.214 C 
ATOM     16  OSC ASG d 302      -0.095  37.543  47.154  0.00  0.00    -0.572 OA
ATOM     17  O3  ASG d 302       2.972  34.447  47.484  0.00  0.00    -0.348 OA
ATOM     18  C4  ASG d 302       3.153  36.439  48.765  0.00  0.00     0.114 C 
ATOM     19  H   ASG d 302       3.998  39.837  51.579  0.00  0.00     0.209 HD
ATOM     20  H   ASG d 302       3.718  38.933  49.472  0.00  0.00     0.078 H 
ATOM     21  H   ASG d 302       2.349  38.614  50.523  0.00  0.00     0.078 H 
ATOM     22  H   ASG d 302       1.491  34.451  49.584  0.00  0.00     0.084 H 
ATOM     23  H   ASG d 302       3.969  34.579  51.274  0.00  0.00     0.132 H 
ATOM     24  H   ASG d 302       4.623  36.722  50.249  0.00  0.00     0.090 H 
ATOM     25  H   ASG d 302       4.425  34.707  48.874  0.00  0.00     0.091 H 
ATOM     26  H   ASG d 302       1.316  29.831  49.182  0.00  0.00     0.040 H 
ATOM     27  H   ASG d 302       2.463  30.207  50.445  0.00  0.00     0.040 H 
ATOM     28  H   ASG d 302       2.945  30.304  48.768  0.00  0.00     0.040 H 
ATOM     29  H   ASG d 302       3.616  32.416  50.001  0.00  0.00     0.163 HD
ATOM     30  H   ASG d 302       3.711  36.932  47.996  0.00  0.00     0.093 H 
ATOM     31  C6  BDP d 303       7.083  35.364  45.382  0.00  0.00     0.206 C 
ATOM     32  O4  BDP d 303       6.500  33.079  43.575  0.00  0.00    -0.348 OA
ATOM     33  O3  BDP d 303       3.882  32.004  43.486  0.00  0.00    -0.390 OA
ATOM     34  C3  BDP d 303       4.455  32.569  44.677  0.00  0.00     0.092 C 
ATOM     35  O6B BDP d 303       6.747  36.250  44.569  0.00  0.00    -0.646 OA
ATOM     36  C4  BDP d 303       5.476  33.656  44.311  0.00  0.00     0.103 C 
ATOM     37  C2  BDP d 303       3.354  33.212  45.497  0.00  0.00     0.110 C 
ATOM     38  O6A BDP d 303       8.142  35.243  46.038  0.00  0.00    -0.646 OA
ATOM     39  C1  BDP d 303       3.965  33.827  46.746  0.00  0.00     0.160 C 
ATOM     40  C5  BDP d 303       6.060  34.255  45.618  0.00  0.00     0.152 C 
ATOM     41  O5  BDP d 303       4.977  34.814  46.412  0.00  0.00    -0.340 OA
ATOM     42  O2  BDP d 303       2.387  32.234  45.889  0.00  0.00    -0.388 OA
ATOM     43  H   BDP d 303       3.240  31.320  43.730  0.00  0.00     0.210 HD
ATOM     44  H   BDP d 303       4.938  31.791  45.230  0.00  0.00     0.091 H 
ATOM     45  H   BDP d 303       5.005  34.426  43.736  0.00  0.00     0.092 H 
ATOM     46  H   BDP d 303       2.873  33.964  44.906  0.00  0.00     0.094 H 
ATOM     47  H   BDP d 303       4.424  33.042  47.310  0.00  0.00     0.133 H 
ATOM     48  H   BDP d 303       6.561  33.452  46.118  0.00  0.00     0.104 H 
ATOM     49  H   BDP d 303       2.817  31.550  46.426  0.00  0.00     0.210 HD
ATOM     50  C1  ASG d 306      12.418  39.218  40.117  0.00  0.00     0.151 C 
ATOM     51  C4  ASG d 306      12.428  41.949  39.051  0.00  0.00     0.089 C 
ATOM     52  C6  ASG d 306       9.951  41.562  38.623  0.00  0.00     0.043 C 
ATOM     53  S   ASG d 306      12.991  42.791  36.681  0.00  0.00     0.252 S 
ATOM     54  O4  ASG d 306      12.731  41.601  37.699  0.00  0.00    -0.249 OA
ATOM     55  OSB ASG d 306      13.306  42.236  35.377  0.00  0.00    -0.572 OA
ATOM     56  OSA ASG d 306      11.793  43.606  36.583  0.00  0.00    -0.572 OA
ATOM     57  C3  ASG d 306      13.636  41.509  39.954  0.00  0.00    -0.014 C 
ATOM     58  C7  ASG d 306      15.698  38.377  40.126  0.00  0.00     0.214 C 
ATOM     59  N   ASG d 306      14.793  39.310  40.638  0.00  0.00    -0.352 N 
ATOM     60  C8  ASG d 306      16.694  37.908  41.157  0.00  0.00    -0.003 C 
ATOM     61  C2  ASG d 306      13.712  39.893  39.782  0.00  0.00     0.062 C 
ATOM     62  O5  ASG d 306      11.336  39.742  39.311  0.00  0.00    -0.349 OA
ATOM     63  O6  ASG d 306       8.814  40.769  38.960  0.00  0.00    -0.398 OA
ATOM     64  O7  ASG d 306      15.694  37.964  38.970  0.00  0.00    -0.274 OA
ATOM     65  OSC ASG d 306      14.093  43.602  37.149  0.00  0.00    -0.572 OA
ATOM     66  C5  ASG d 306      11.142  41.181  39.475  0.00  0.00     0.088 C 
ATOM     67  H   ASG d 306      12.175  39.401  41.143  0.00  0.00     0.132 H 
ATOM     68  H   ASG d 306      12.267  43.002  39.153  0.00  0.00     0.089 H 
ATOM     69  H   ASG d 306      10.194  41.408  37.591  0.00  0.00     0.078 H 
ATOM     70  H   ASG d 306       9.717  42.591  38.800  0.00  0.00     0.078 H 
ATOM     71  H   ASG d 306      13.458  41.772  40.976  0.00  0.00     0.040 H 
ATOM     72  H   ASG d 306      14.549  41.990  39.672  0.00  0.00     0.040 H 
ATOM     73  H   ASG d 306      14.868  39.590  41.579  0.00  0.00     0.163 HD
ATOM     74  H   ASG d 306      16.503  38.403  42.087  0.00  0.00     0.040 H 
ATOM     75  H   ASG d 306      17.685  38.139  40.827  0.00  0.00     0.040 H 
ATOM     76  H   ASG d 306      16.599  36.851  41.290  0.00  0.00     0.040 H 
ATOM     77  H   ASG d 306      13.929  39.718  38.749  0.00  0.00     0.080 H 
ATOM     78  H   ASG d 306       9.014  39.833  38.803  0.00  0.00     0.209 HD
ATOM     79  H   ASG d 306      10.956  41.439  40.497  0.00  0.00     0.090 H 
ATOM     80  C5  BDP d 305      12.044  35.793  41.041  0.00  0.00     0.152 C 
ATOM     81  O6B BDP d 305      11.145  36.709  43.007  0.00  0.00    -0.646 OA
ATOM     82  C6  BDP d 305      12.204  36.420  42.419  0.00  0.00     0.206 C 
ATOM     83  O4  BDP d 305      12.564  37.852  39.893  0.00  0.00    -0.348 OA
ATOM     84  O3  BDP d 305      11.173  37.010  37.562  0.00  0.00    -0.390 OA
ATOM     85  C2  BDP d 305      10.416  35.074  38.743  0.00  0.00     0.110 C 
ATOM     86  C1  BDP d 305      10.764  34.083  39.864  0.00  0.00     0.160 C 
ATOM     87  C4  BDP d 305      11.652  36.817  39.952  0.00  0.00     0.103 C 
ATOM     88  O6A BDP d 305      13.394  36.571  42.789  0.00  0.00    -0.646 OA
ATOM     89  C3  BDP d 305      11.530  36.092  38.598  0.00  0.00     0.092 C 
ATOM     90  O2  BDP d 305      10.227  34.338  37.531  0.00  0.00    -0.388 OA
ATOM     91  O5  BDP d 305      10.994  34.781  41.125  0.00  0.00    -0.340 OA
ATOM     92  H   BDP d 305      12.989  35.377  40.760  0.00  0.00     0.104 H 
ATOM     93  H   BDP d 305      11.101  36.534  36.719  0.00  0.00     0.210 HD
ATOM     94  H   BDP d 305       9.516  35.603  38.974  0.00  0.00     0.094 H 
ATOM     95  H   BDP d 305      11.659  33.569  39.581  0.00  0.00     0.133 H 
ATOM     96  H   BDP d 305      10.706  37.252  40.198  0.00  0.00     0.092 H 
ATOM     97  H   BDP d 305      12.463  35.638  38.342  0.00  0.00     0.091 H 
ATOM     98  H   BDP d 305      11.040  33.855  37.316  0.00  0.00     0.210 HD
ATOM     99  O6B BDP d 301       4.086  31.780  53.917  0.00  0.00    -0.646 OA
ATOM    100  C6  BDP d 301       2.926  31.841  53.452  0.00  0.00     0.206 C 
ATOM    101  O6A BDP d 301       2.361  31.109  52.611  0.00  0.00    -0.646 OA
ATOM    102  O5  BDP d 301       2.145  32.965  55.435  0.00  0.00    -0.340 OA
ATOM    103  C5  BDP d 301       2.067  32.977  53.992  0.00  0.00     0.152 C 
ATOM    104  C3  BDP d 301       1.550  35.427  54.101  0.00  0.00     0.092 C 
ATOM    105  C1  BDP d 301       1.341  34.010  56.062  0.00  0.00     0.156 C 
ATOM    106  O1  BDP d 301       1.490  33.836  57.553  0.00  0.00    -0.368 OA
ATOM    107  C4  BDP d 301       2.456  34.352  53.449  0.00  0.00     0.103 C 
ATOM    108  C2  BDP d 301       1.743  35.384  55.609  0.00  0.00     0.110 C 
ATOM    109  O2  BDP d 301       0.912  36.337  56.267  0.00  0.00    -0.388 OA
ATOM    110  O4  BDP d 301       2.151  34.290  52.103  0.00  0.00    -0.348 OA
ATOM    111  O3  BDP d 301       1.913  36.725  53.624  0.00  0.00    -0.390 OA
ATOM    112  H   BDP d 301       1.064  32.811  53.659  0.00  0.00     0.104 H 
ATOM    113  H   BDP d 301       0.529  35.231  53.850  0.00  0.00     0.091 H 
ATOM    114  H   BDP d 301       0.315  33.917  55.773  0.00  0.00     0.133 H 
ATOM    115  H   BDP d 301       2.424  33.923  57.798  0.00  0.00     0.212 HD
ATOM    116  H   BDP d 301       3.480  34.595  53.640  0.00  0.00     0.092 H 
ATOM    117  H   BDP d 301       2.761  35.610  55.848  0.00  0.00     0.094 H 
ATOM    118  H   BDP d 301      -0.018  36.151  56.063  0.00  0.00     0.210 HD
ATOM    119  H   BDP d 301       2.839  36.905  53.850  0.00  0.00     0.210 HD
ATOM    120  OSC ASG d 304       7.342  29.925  37.941  0.00  0.00    -0.572 OA
ATOM    121  O3  ASG d 304       9.713  33.156  40.038  0.00  0.00    -0.348 OA
ATOM    122  C5  ASG d 304       6.029  33.951  40.092  0.00  0.00     0.090 C 
ATOM    123  C6  ASG d 304       4.835  33.678  39.210  0.00  0.00     0.043 C 
ATOM    124  O4  ASG d 304       7.197  31.947  39.371  0.00  0.00    -0.246 OA
ATOM    125  C7  ASG d 304       9.587  32.544  43.898  0.00  0.00     0.214 C 
ATOM    126  C8  ASG d 304      10.716  33.080  44.750  0.00  0.00    -0.003 C 
ATOM    127  S   ASG d 304       7.401  31.372  37.896  0.00  0.00     0.252 S 
ATOM    128  OSB ASG d 304       6.357  31.875  37.021  0.00  0.00    -0.572 OA
ATOM    129  N   ASG d 304       9.258  33.391  42.849  0.00  0.00    -0.349 N 
ATOM    130  C4  ASG d 304       7.345  33.368  39.527  0.00  0.00     0.114 C 
ATOM    131  C3  ASG d 304       8.486  33.681  40.517  0.00  0.00     0.094 C 
ATOM    132  C1  ASG d 304       6.835  33.648  42.356  0.00  0.00     0.154 C 
ATOM    133  O7  ASG d 304       9.033  31.481  44.123  0.00  0.00    -0.274 OA
ATOM    134  O6  ASG d 304       3.764  34.572  39.518  0.00  0.00    -0.398 OA
ATOM    135  O5  ASG d 304       5.756  33.388  41.410  0.00  0.00    -0.349 OA
ATOM    136  C2  ASG d 304       8.167  33.068  41.870  0.00  0.00     0.087 C 
ATOM    137  OSA ASG d 304       8.693  31.796  37.382  0.00  0.00    -0.572 OA
ATOM    138  H   ASG d 304       6.171  35.010  40.144  0.00  0.00     0.090 H 
ATOM    139  H   ASG d 304       4.507  32.672  39.364  0.00  0.00     0.078 H 
ATOM    140  H   ASG d 304       5.121  33.823  38.190  0.00  0.00     0.078 H 
ATOM    141  H   ASG d 304      11.040  34.022  44.361  0.00  0.00     0.040 H 
ATOM    142  H   ASG d 304      11.532  32.388  44.736  0.00  0.00     0.040 H 
ATOM    143  H   ASG d 304      10.374  33.208  45.756  0.00  0.00     0.040 H 
ATOM    144  H   ASG d 304       9.759  34.232  42.744  0.00  0.00     0.163 HD
ATOM    145  H   ASG d 304       7.572  33.800  38.575  0.00  0.00     0.093 H 
ATOM    146  H   ASG d 304       8.577  34.743  40.612  0.00  0.00     0.091 H 
ATOM    147  H   ASG d 304       6.957  34.707  42.451  0.00  0.00     0.132 H 
ATOM    148  H   ASG d 304       3.496  34.449  40.443  0.00  0.00     0.209 HD
ATOM    149  H   ASG d 304       8.097  32.004  41.786  0.00  0.00     0.084 H 
ENDROOT
TORSDOF 38
ENDMDL
MODEL 33
REMARK VINA RESULT:      -6.3      3.553     14.692
REMARK  0 active torsions:
REMARK  status: ('A' for Active; 'I' for Inactive)
REMARK       I    between atoms: C6_2  and  C5_74 
REMARK       I    between atoms: C1_3  and  O4_24 
REMARK       I    between atoms: O6_4  and  C6_26 
REMARK       I    between atoms: C5_5  and  C6_12 
REMARK       I    between atoms: C4_6  and  O4_22 
REMARK       I    between atoms: C6_8  and  C5_90 
REMARK       I    between atoms: C6_8  and  O6_83 
REMARK       I    between atoms: O3_11  and  C3_60 
REMARK       I    between atoms: O3_11  and  C1_29 
REMARK       I    between atoms: C5_13  and  C6_18 
REMARK       I    between atoms: O4_14  and  C4_88 
REMARK       I    between atoms: O4_14  and  S_15 
REMARK       I    between atoms: C6_16  and  C5_28 
REMARK       I    between atoms: S_17  and  O4_22 
REMARK       I    between atoms: C6_18  and  O6_66 
REMARK       I    between atoms: O4_20  and  C4_46 
REMARK       I    between atoms: O4_20  and  C1_61 
REMARK       I    between atoms: O4_21  and  C4_54 
REMARK       I    between atoms: O4_21  and  S_40 
REMARK       I    between atoms: O4_24  and  C4_35 
REMARK       I    between atoms: O3_25  and  C3_48 
REMARK       I    between atoms: C6_26  and  C5_50 
REMARK       I    between atoms: C2_27  and  O2_55 
REMARK       I    between atoms: O3_31  and  C3_37 
REMARK       I    between atoms: C2_32  and  N_72 
REMARK       I    between atoms: C7_33  and  C8_39 
REMARK       I    between atoms: C7_33  and  N_52 
REMARK       I    between atoms: C1_34  and  O4_86 
REMARK       I    between atoms: C3_36  and  O3_87 
REMARK       I    between atoms: C2_47  and  O2_85 
REMARK       I    between atoms: N_52  and  C2_71 
REMARK       I    between atoms: C3_53  and  O3_81 
REMARK       I    between atoms: C1_56  and  O3_81 
REMARK       I    between atoms: C7_57  and  C8_64 
REMARK       I    between atoms: C7_57  and  N_63 
REMARK       I    between atoms: C8_58  and  C7_73 
REMARK       I    between atoms: C1_59  and  O1_68 
REMARK       I    between atoms: N_63  and  C2_67 
REMARK       I    between atoms: C4_69  and  O4_86 
REMARK       I    between atoms: N_72  and  C7_73 
REMARK       I    between atoms: C2_77  and  O2_82 
ROOT
ATOM      1  OSB ASG d 302       8.414  31.662  47.875  0.00  0.00    -0.572 OA
ATOM      2  O6  ASG d 302       7.373  35.517  46.038  0.00  0.00    -0.398 OA
ATOM      3  O4  ASG d 302       8.196  33.344  49.693  0.00  0.00    -0.246 OA
ATOM      4  S   ASG d 302       8.743  31.901  49.266  0.00  0.00     0.252 S 
ATOM      5  C6  ASG d 302       7.792  34.606  47.050  0.00  0.00     0.043 C 
ATOM      6  C2  ASG d 302       7.875  35.716  51.191  0.00  0.00     0.087 C 
ATOM      7  C1  ASG d 302       7.065  36.483  50.157  0.00  0.00     0.154 C 
ATOM      8  O5  ASG d 302       6.873  35.718  48.946  0.00  0.00    -0.349 OA
ATOM      9  C5  ASG d 302       8.124  35.343  48.322  0.00  0.00     0.090 C 
ATOM     10  O7  ASG d 302       7.252  35.011  53.912  0.00  0.00    -0.274 OA
ATOM     11  C3  ASG d 302       9.212  35.368  50.562  0.00  0.00     0.094 C 
ATOM     12  C8  ASG d 302       8.042  37.114  54.759  0.00  0.00    -0.003 C 
ATOM     13  OSA ASG d 302      10.182  31.839  49.443  0.00  0.00    -0.572 OA
ATOM     14  N   ASG d 302       8.080  36.560  52.406  0.00  0.00    -0.349 N 
ATOM     15  C7  ASG d 302       7.740  36.105  53.677  0.00  0.00     0.214 C 
ATOM     16  OSC ASG d 302       8.113  30.894  50.088  0.00  0.00    -0.572 OA
ATOM     17  O3  ASG d 302       9.923  34.620  51.481  0.00  0.00    -0.348 OA
ATOM     18  C4  ASG d 302       8.959  34.506  49.314  0.00  0.00     0.114 C 
ATOM     19  H   ASG d 302       7.164  35.026  45.228  0.00  0.00     0.209 HD
ATOM     20  H   ASG d 302       8.660  34.079  46.712  0.00  0.00     0.078 H 
ATOM     21  H   ASG d 302       6.995  33.919  47.247  0.00  0.00     0.078 H 
ATOM     22  H   ASG d 302       7.362  34.825  51.488  0.00  0.00     0.084 H 
ATOM     23  H   ASG d 302       7.608  37.374  49.922  0.00  0.00     0.132 H 
ATOM     24  H   ASG d 302       8.723  36.192  48.070  0.00  0.00     0.090 H 
ATOM     25  H   ASG d 302       9.750  36.252  50.291  0.00  0.00     0.091 H 
ATOM     26  H   ASG d 302       7.762  36.712  55.710  0.00  0.00     0.040 H 
ATOM     27  H   ASG d 302       7.489  38.012  54.574  0.00  0.00     0.040 H 
ATOM     28  H   ASG d 302       9.089  37.334  54.760  0.00  0.00     0.040 H 
ATOM     29  H   ASG d 302       8.465  37.460  52.306  0.00  0.00     0.163 HD
ATOM     30  H   ASG d 302       9.885  34.203  48.872  0.00  0.00     0.093 H 
ATOM     31  C6  BDP d 303      14.104  35.720  49.619  0.00  0.00     0.206 C 
ATOM     32  O4  BDP d 303      15.236  35.410  52.348  0.00  0.00    -0.348 OA
ATOM     33  O3  BDP d 303      13.701  34.134  54.357  0.00  0.00    -0.390 OA
ATOM     34  C3  BDP d 303      13.115  34.920  53.306  0.00  0.00     0.092 C 
ATOM     35  O6B BDP d 303      14.485  34.607  49.202  0.00  0.00    -0.646 OA
ATOM     36  C4  BDP d 303      13.995  34.867  52.050  0.00  0.00     0.103 C 
ATOM     37  C2  BDP d 303      11.757  34.342  52.956  0.00  0.00     0.110 C 
ATOM     38  O6A BDP d 303      14.268  36.858  49.121  0.00  0.00    -0.646 OA
ATOM     39  C1  BDP d 303      11.148  35.162  51.831  0.00  0.00     0.160 C 
ATOM     40  C5  BDP d 303      13.325  35.709  50.931  0.00  0.00     0.152 C 
ATOM     41  O5  BDP d 303      12.002  35.169  50.656  0.00  0.00    -0.340 OA
ATOM     42  O2  BDP d 303      10.886  34.393  54.090  0.00  0.00    -0.388 OA
ATOM     43  H   BDP d 303      13.137  34.176  55.144  0.00  0.00     0.210 HD
ATOM     44  H   BDP d 303      13.024  35.932  53.641  0.00  0.00     0.091 H 
ATOM     45  H   BDP d 303      14.111  33.855  51.722  0.00  0.00     0.092 H 
ATOM     46  H   BDP d 303      11.880  33.323  52.654  0.00  0.00     0.094 H 
ATOM     47  H   BDP d 303      11.034  36.167  52.179  0.00  0.00     0.133 H 
ATOM     48  H   BDP d 303      13.287  36.715  51.295  0.00  0.00     0.104 H 
ATOM     49  H   BDP d 303      10.770  35.315  54.368  0.00  0.00     0.210 HD
ATOM     50  C1  ASG d 306      21.382  34.419  45.573  0.00  0.00     0.151 C 
ATOM     51  C4  ASG d 306      22.098  32.501  43.475  0.00  0.00     0.089 C 
ATOM     52  C6  ASG d 306      20.886  30.795  44.920  0.00  0.00     0.043 C 
ATOM     53  S   ASG d 306      24.253  31.122  43.168  0.00  0.00     0.252 S 
ATOM     54  O4  ASG d 306      23.352  32.103  44.031  0.00  0.00    -0.249 OA
ATOM     55  OSB ASG d 306      25.487  30.859  43.887  0.00  0.00    -0.572 OA
ATOM     56  OSA ASG d 306      23.539  29.875  42.960  0.00  0.00    -0.572 OA
ATOM     57  C3  ASG d 306      22.178  34.031  43.128  0.00  0.00    -0.014 C 
ATOM     58  C7  ASG d 306      23.479  37.015  44.998  0.00  0.00     0.214 C 
ATOM     59  N   ASG d 306      22.472  36.253  44.401  0.00  0.00    -0.352 N 
ATOM     60  C8  ASG d 306      23.327  38.491  44.726  0.00  0.00    -0.003 C 
ATOM     61  C2  ASG d 306      22.429  34.765  44.558  0.00  0.00     0.062 C 
ATOM     62  O5  ASG d 306      21.303  32.988  45.768  0.00  0.00    -0.349 OA
ATOM     63  O6  ASG d 306      19.941  30.612  45.974  0.00  0.00    -0.398 OA
ATOM     64  O7  ASG d 306      24.391  36.555  45.679  0.00  0.00    -0.274 OA
ATOM     65  OSC ASG d 306      24.550  31.730  41.890  0.00  0.00    -0.572 OA
ATOM     66  C5  ASG d 306      20.992  32.256  44.543  0.00  0.00     0.088 C 
ATOM     67  H   ASG d 306      20.426  34.753  45.227  0.00  0.00     0.132 H 
ATOM     68  H   ASG d 306      21.872  31.943  42.590  0.00  0.00     0.089 H 
ATOM     69  H   ASG d 306      21.845  30.445  45.242  0.00  0.00     0.078 H 
ATOM     70  H   ASG d 306      20.556  30.242  44.064  0.00  0.00     0.078 H 
ATOM     71  H   ASG d 306      21.262  34.366  42.688  0.00  0.00     0.040 H 
ATOM     72  H   ASG d 306      22.952  34.246  42.422  0.00  0.00     0.040 H 
ATOM     73  H   ASG d 306      21.777  36.702  43.867  0.00  0.00     0.163 HD
ATOM     74  H   ASG d 306      22.465  38.654  44.113  0.00  0.00     0.040 H 
ATOM     75  H   ASG d 306      24.198  38.852  44.220  0.00  0.00     0.040 H 
ATOM     76  H   ASG d 306      23.211  39.014  45.652  0.00  0.00     0.040 H 
ATOM     77  H   ASG d 306      23.374  34.406  44.910  0.00  0.00     0.080 H 
ATOM     78  H   ASG d 306      20.229  31.108  46.756  0.00  0.00     0.209 HD
ATOM     79  H   ASG d 306      20.071  32.589  44.109  0.00  0.00     0.090 H 
ATOM     80  C5  BDP d 305      20.577  36.351  48.462  0.00  0.00     0.152 C 
ATOM     81  O6B BDP d 305      18.447  36.426  47.477  0.00  0.00    -0.646 OA
ATOM     82  C6  BDP d 305      19.583  36.937  47.470  0.00  0.00     0.206 C 
ATOM     83  O4  BDP d 305      21.707  35.049  46.771  0.00  0.00    -0.348 OA
ATOM     84  O3  BDP d 305      22.673  33.205  48.706  0.00  0.00    -0.390 OA
ATOM     85  C2  BDP d 305      21.364  34.308  50.375  0.00  0.00     0.110 C 
ATOM     86  C1  BDP d 305      20.757  35.655  50.793  0.00  0.00     0.160 C 
ATOM     87  C4  BDP d 305      21.131  34.975  48.023  0.00  0.00     0.103 C 
ATOM     88  O6A BDP d 305      20.040  37.867  46.761  0.00  0.00    -0.646 OA
ATOM     89  C3  BDP d 305      22.134  34.475  49.080  0.00  0.00     0.092 C 
ATOM     90  O2  BDP d 305      22.216  33.849  51.428  0.00  0.00    -0.388 OA
ATOM     91  O5  BDP d 305      19.894  36.188  49.743  0.00  0.00    -0.340 OA
ATOM     92  H   BDP d 305      21.409  37.021  48.527  0.00  0.00     0.104 H 
ATOM     93  H   BDP d 305      23.302  32.909  49.383  0.00  0.00     0.210 HD
ATOM     94  H   BDP d 305      20.595  33.584  50.207  0.00  0.00     0.094 H 
ATOM     95  H   BDP d 305      21.563  36.339  50.963  0.00  0.00     0.133 H 
ATOM     96  H   BDP d 305      20.326  34.275  47.953  0.00  0.00     0.092 H 
ATOM     97  H   BDP d 305      22.941  35.170  49.176  0.00  0.00     0.091 H 
ATOM     98  H   BDP d 305      22.916  34.501  51.585  0.00  0.00     0.210 HD
ATOM     99  O6B BDP d 301       5.753  40.306  51.594  0.00  0.00    -0.646 OA
ATOM    100  C6  BDP d 301       5.380  39.240  52.131  0.00  0.00     0.206 C 
ATOM    101  O6A BDP d 301       5.707  38.740  53.229  0.00  0.00    -0.646 OA
ATOM    102  O5  BDP d 301       3.302  39.304  50.913  0.00  0.00    -0.340 OA
ATOM    103  C5  BDP d 301       4.371  38.426  51.331  0.00  0.00     0.152 C 
ATOM    104  C3  BDP d 301       3.856  36.960  49.365  0.00  0.00     0.092 C 
ATOM    105  C1  BDP d 301       2.265  38.620  50.146  0.00  0.00     0.156 C 
ATOM    106  O1  BDP d 301       1.210  39.651  49.828  0.00  0.00    -0.368 OA
ATOM    107  C4  BDP d 301       4.978  37.712  50.124  0.00  0.00     0.103 C 
ATOM    108  C2  BDP d 301       2.810  37.967  48.910  0.00  0.00     0.110 C 
ATOM    109  O2  BDP d 301       1.735  37.326  48.226  0.00  0.00    -0.388 OA
ATOM    110  O4  BDP d 301       5.832  36.774  50.671  0.00  0.00    -0.348 OA
ATOM    111  O3  BDP d 301       4.398  36.303  48.217  0.00  0.00    -0.390 OA
ATOM    112  H   BDP d 301       4.004  37.649  51.969  0.00  0.00     0.104 H 
ATOM    113  H   BDP d 301       3.415  36.232  50.014  0.00  0.00     0.091 H 
ATOM    114  H   BDP d 301       1.846  37.817  50.717  0.00  0.00     0.133 H 
ATOM    115  H   BDP d 301       1.606  40.370  49.312  0.00  0.00     0.212 HD
ATOM    116  H   BDP d 301       5.465  38.385  49.451  0.00  0.00     0.092 H 
ATOM    117  H   BDP d 301       3.257  38.671  48.240  0.00  0.00     0.094 H 
ATOM    118  H   BDP d 301       1.315  36.681  48.817  0.00  0.00     0.210 HD
ATOM    119  H   BDP d 301       4.799  36.961  47.628  0.00  0.00     0.210 HD
ATOM    120  OSC ASG d 304      20.270  34.292  56.325  0.00  0.00    -0.572 OA
ATOM    121  O3  ASG d 304      20.000  35.502  51.975  0.00  0.00    -0.348 OA
ATOM    122  C5  ASG d 304      17.601  32.694  52.735  0.00  0.00     0.090 C 
ATOM    123  C6  ASG d 304      17.544  31.530  53.693  0.00  0.00     0.043 C 
ATOM    124  O4  ASG d 304      18.983  34.031  54.220  0.00  0.00    -0.246 OA
ATOM    125  C7  ASG d 304      16.954  37.908  51.495  0.00  0.00     0.214 C 
ATOM    126  C8  ASG d 304      16.982  38.884  50.342  0.00  0.00    -0.003 C 
ATOM    127  S   ASG d 304      20.279  33.607  55.048  0.00  0.00     0.252 S 
ATOM    128  OSB ASG d 304      20.278  32.171  55.267  0.00  0.00    -0.572 OA
ATOM    129  N   ASG d 304      17.523  36.684  51.175  0.00  0.00    -0.349 N 
ATOM    130  C4  ASG d 304      18.894  33.532  52.876  0.00  0.00     0.114 C 
ATOM    131  C3  ASG d 304      18.832  34.703  51.873  0.00  0.00     0.094 C 
ATOM    132  C1  ASG d 304      16.367  34.665  52.054  0.00  0.00     0.154 C 
ATOM    133  O7  ASG d 304      16.476  38.180  52.584  0.00  0.00    -0.274 OA
ATOM    134  O6  ASG d 304      16.592  30.560  53.254  0.00  0.00    -0.398 OA
ATOM    135  O5  ASG d 304      16.432  33.534  52.972  0.00  0.00    -0.349 OA
ATOM    136  C2  ASG d 304      17.609  35.556  52.163  0.00  0.00     0.087 C 
ATOM    137  OSA ASG d 304      21.474  33.971  54.304  0.00  0.00    -0.572 OA
ATOM    138  H   ASG d 304      17.605  32.307  51.738  0.00  0.00     0.090 H 
ATOM    139  H   ASG d 304      17.261  31.886  54.661  0.00  0.00     0.078 H 
ATOM    140  H   ASG d 304      18.509  31.071  53.734  0.00  0.00     0.078 H 
ATOM    141  H   ASG d 304      17.448  38.424  49.495  0.00  0.00     0.040 H 
ATOM    142  H   ASG d 304      17.537  39.754  50.624  0.00  0.00     0.040 H 
ATOM    143  H   ASG d 304      15.981  39.167  50.088  0.00  0.00     0.040 H 
ATOM    144  H   ASG d 304      17.884  36.550  50.269  0.00  0.00     0.163 HD
ATOM    145  H   ASG d 304      19.756  32.933  52.670  0.00  0.00     0.093 H 
ATOM    146  H   ASG d 304      18.770  34.305  50.882  0.00  0.00     0.091 H 
ATOM    147  H   ASG d 304      16.325  34.288  51.053  0.00  0.00     0.132 H 
ATOM    148  H   ASG d 304      15.711  30.966  53.213  0.00  0.00     0.209 HD
ATOM    149  H   ASG d 304      17.675  35.976  53.145  0.00  0.00     0.084 H 
ENDROOT
TORSDOF 38
ENDMDL
MODEL 34
REMARK VINA RESULT:      -6.2      6.465     12.210
REMARK  0 active torsions:
REMARK  status: ('A' for Active; 'I' for Inactive)
REMARK       I    between atoms: C6_2  and  C5_74 
REMARK       I    between atoms: C1_3  and  O4_24 
REMARK       I    between atoms: O6_4  and  C6_26 
REMARK       I    between atoms: C5_5  and  C6_12 
REMARK       I    between atoms: C4_6  and  O4_22 
REMARK       I    between atoms: C6_8  and  C5_90 
REMARK       I    between atoms: C6_8  and  O6_83 
REMARK       I    between atoms: O3_11  and  C3_60 
REMARK       I    between atoms: O3_11  and  C1_29 
REMARK       I    between atoms: C5_13  and  C6_18 
REMARK       I    between atoms: O4_14  and  C4_88 
REMARK       I    between atoms: O4_14  and  S_15 
REMARK       I    between atoms: C6_16  and  C5_28 
REMARK       I    between atoms: S_17  and  O4_22 
REMARK       I    between atoms: C6_18  and  O6_66 
REMARK       I    between atoms: O4_20  and  C4_46 
REMARK       I    between atoms: O4_20  and  C1_61 
REMARK       I    between atoms: O4_21  and  C4_54 
REMARK       I    between atoms: O4_21  and  S_40 
REMARK       I    between atoms: O4_24  and  C4_35 
REMARK       I    between atoms: O3_25  and  C3_48 
REMARK       I    between atoms: C6_26  and  C5_50 
REMARK       I    between atoms: C2_27  and  O2_55 
REMARK       I    between atoms: O3_31  and  C3_37 
REMARK       I    between atoms: C2_32  and  N_72 
REMARK       I    between atoms: C7_33  and  C8_39 
REMARK       I    between atoms: C7_33  and  N_52 
REMARK       I    between atoms: C1_34  and  O4_86 
REMARK       I    between atoms: C3_36  and  O3_87 
REMARK       I    between atoms: C2_47  and  O2_85 
REMARK       I    between atoms: N_52  and  C2_71 
REMARK       I    between atoms: C3_53  and  O3_81 
REMARK       I    between atoms: C1_56  and  O3_81 
REMARK       I    between atoms: C7_57  and  C8_64 
REMARK       I    between atoms: C7_57  and  N_63 
REMARK       I    between atoms: C8_58  and  C7_73 
REMARK       I    between atoms: C1_59  and  O1_68 
REMARK       I    between atoms: N_63  and  C2_67 
REMARK       I    between atoms: C4_69  and  O4_86 
REMARK       I    between atoms: N_72  and  C7_73 
REMARK       I    between atoms: C2_77  and  O2_82 
ROOT
ATOM      1  OSB ASG d 302      11.307  32.836  51.715  0.00  0.00    -0.572 OA
ATOM      2  O6  ASG d 302      12.541  36.844  53.027  0.00  0.00    -0.398 OA
ATOM      3  O4  ASG d 302      13.746  33.065  51.290  0.00  0.00    -0.246 OA
ATOM      4  S   ASG d 302      12.406  32.246  50.977  0.00  0.00     0.252 S 
ATOM      5  C6  ASG d 302      12.636  35.578  52.382  0.00  0.00     0.043 C 
ATOM      6  C2  ASG d 302      16.390  34.017  51.018  0.00  0.00     0.087 C 
ATOM      7  C1  ASG d 302      16.297  35.130  52.052  0.00  0.00     0.154 C 
ATOM      8  O5  ASG d 302      14.976  35.214  52.635  0.00  0.00    -0.349 OA
ATOM      9  C5  ASG d 302      13.947  35.454  51.648  0.00  0.00     0.090 C 
ATOM     10  O7  ASG d 302      18.171  31.761  50.852  0.00  0.00    -0.274 OA
ATOM     11  C3  ASG d 302      15.349  34.294  49.948  0.00  0.00     0.094 C 
ATOM     12  C8  ASG d 302      19.867  33.036  49.727  0.00  0.00    -0.003 C 
ATOM     13  OSA ASG d 302      12.115  32.286  49.556  0.00  0.00    -0.572 OA
ATOM     14  N   ASG d 302      17.756  33.996  50.416  0.00  0.00    -0.349 N 
ATOM     15  C7  ASG d 302      18.525  32.835  50.393  0.00  0.00     0.214 C 
ATOM     16  OSC ASG d 302      12.582  30.873  51.394  0.00  0.00    -0.572 OA
ATOM     17  O3  ASG d 302      15.395  33.252  49.042  0.00  0.00    -0.348 OA
ATOM     18  C4  ASG d 302      13.960  34.315  50.607  0.00  0.00     0.114 C 
ATOM     19  H   ASG d 302      11.693  36.906  53.493  0.00  0.00     0.209 HD
ATOM     20  H   ASG d 302      11.832  35.477  51.684  0.00  0.00     0.078 H 
ATOM     21  H   ASG d 302      12.582  34.808  53.123  0.00  0.00     0.078 H 
ATOM     22  H   ASG d 302      16.212  33.065  51.471  0.00  0.00     0.084 H 
ATOM     23  H   ASG d 302      16.513  36.050  51.551  0.00  0.00     0.132 H 
ATOM     24  H   ASG d 302      14.111  36.359  51.102  0.00  0.00     0.090 H 
ATOM     25  H   ASG d 302      15.537  35.230  49.464  0.00  0.00     0.091 H 
ATOM     26  H   ASG d 302      20.411  32.116  49.738  0.00  0.00     0.040 H 
ATOM     27  H   ASG d 302      20.419  33.784  50.257  0.00  0.00     0.040 H 
ATOM     28  H   ASG d 302      19.720  33.352  48.716  0.00  0.00     0.040 H 
ATOM     29  H   ASG d 302      18.123  34.822  50.027  0.00  0.00     0.163 HD
ATOM     30  H   ASG d 302      13.197  34.462  49.871  0.00  0.00     0.093 H 
ATOM     31  C6  BDP d 303      13.543  35.794  45.540  0.00  0.00     0.206 C 
ATOM     32  O4  BDP d 303      15.099  34.083  43.674  0.00  0.00    -0.348 OA
ATOM     33  O3  BDP d 303      16.245  31.673  44.619  0.00  0.00    -0.390 OA
ATOM     34  C3  BDP d 303      16.090  32.840  45.443  0.00  0.00     0.092 C 
ATOM     35  O6B BDP d 303      12.456  35.208  45.364  0.00  0.00    -0.646 OA
ATOM     36  C4  BDP d 303      14.879  33.661  44.977  0.00  0.00     0.103 C 
ATOM     37  C2  BDP d 303      15.841  32.405  46.874  0.00  0.00     0.110 C 
ATOM     38  O6A BDP d 303      13.815  37.014  45.464  0.00  0.00    -0.646 OA
ATOM     39  C1  BDP d 303      15.657  33.641  47.740  0.00  0.00     0.160 C 
ATOM     40  C5  BDP d 303      14.730  34.902  45.897  0.00  0.00     0.152 C 
ATOM     41  O5  BDP d 303      14.552  34.458  47.271  0.00  0.00    -0.340 OA
ATOM     42  O2  BDP d 303      16.956  31.656  47.368  0.00  0.00    -0.388 OA
ATOM     43  H   BDP d 303      17.012  31.163  44.923  0.00  0.00     0.210 HD
ATOM     44  H   BDP d 303      16.977  33.433  45.373  0.00  0.00     0.091 H 
ATOM     45  H   BDP d 303      13.990  33.067  45.021  0.00  0.00     0.092 H 
ATOM     46  H   BDP d 303      14.966  31.791  46.905  0.00  0.00     0.094 H 
ATOM     47  H   BDP d 303      16.557  34.217  47.688  0.00  0.00     0.133 H 
ATOM     48  H   BDP d 303      15.622  35.480  45.768  0.00  0.00     0.104 H 
ATOM     49  H   BDP d 303      17.753  32.208  47.344  0.00  0.00     0.210 HD
ATOM     50  C1  ASG d 306       7.772  38.141  39.865  0.00  0.00     0.151 C 
ATOM     51  C4  ASG d 306       4.846  37.957  39.910  0.00  0.00     0.089 C 
ATOM     52  C6  ASG d 306       5.223  35.583  40.739  0.00  0.00     0.043 C 
ATOM     53  S   ASG d 306       3.204  37.336  38.024  0.00  0.00     0.252 S 
ATOM     54  O4  ASG d 306       4.686  37.481  38.573  0.00  0.00    -0.249 OA
ATOM     55  OSB ASG d 306       3.253  36.867  36.651  0.00  0.00    -0.572 OA
ATOM     56  OSA ASG d 306       2.485  36.372  38.839  0.00  0.00    -0.572 OA
ATOM     57  C3  ASG d 306       5.491  39.389  39.848  0.00  0.00    -0.014 C 
ATOM     58  C7  ASG d 306       8.349  40.827  37.885  0.00  0.00     0.214 C 
ATOM     59  N   ASG d 306       7.710  40.439  39.065  0.00  0.00    -0.352 N 
ATOM     60  C8  ASG d 306       9.078  42.140  38.025  0.00  0.00    -0.003 C 
ATOM     61  C2  ASG d 306       6.939  39.158  39.146  0.00  0.00     0.062 C 
ATOM     62  O5  ASG d 306       7.073  36.878  39.965  0.00  0.00    -0.349 OA
ATOM     63  O6  ASG d 306       6.155  34.685  41.340  0.00  0.00    -0.398 OA
ATOM     64  O7  ASG d 306       8.337  40.182  36.841  0.00  0.00    -0.274 OA
ATOM     65  OSC ASG d 306       2.534  38.616  38.083  0.00  0.00    -0.572 OA
ATOM     66  C5  ASG d 306       5.795  36.981  40.665  0.00  0.00     0.088 C 
ATOM     67  H   ASG d 306       7.970  38.482  40.859  0.00  0.00     0.132 H 
ATOM     68  H   ASG d 306       3.906  38.008  40.419  0.00  0.00     0.089 H 
ATOM     69  H   ASG d 306       4.996  35.243  39.750  0.00  0.00     0.078 H 
ATOM     70  H   ASG d 306       4.335  35.606  41.337  0.00  0.00     0.078 H 
ATOM     71  H   ASG d 306       5.609  39.792  40.832  0.00  0.00     0.040 H 
ATOM     72  H   ASG d 306       4.883  40.083  39.306  0.00  0.00     0.040 H 
ATOM     73  H   ASG d 306       7.768  41.018  39.859  0.00  0.00     0.163 HD
ATOM     74  H   ASG d 306       8.948  42.516  39.018  0.00  0.00     0.040 H 
ATOM     75  H   ASG d 306       8.684  42.844  37.322  0.00  0.00     0.040 H 
ATOM     76  H   ASG d 306      10.120  41.991  37.833  0.00  0.00     0.040 H 
ATOM     77  H   ASG d 306       6.733  38.793  38.161  0.00  0.00     0.080 H 
ATOM     78  H   ASG d 306       6.965  34.655  40.807  0.00  0.00     0.209 HD
ATOM     79  H   ASG d 306       5.918  37.378  41.652  0.00  0.00     0.090 H 
ATOM     80  C5  BDP d 305      11.322  37.855  39.670  0.00  0.00     0.152 C 
ATOM     81  O6B BDP d 305      11.200  38.210  41.987  0.00  0.00    -0.646 OA
ATOM     82  C6  BDP d 305      11.199  38.774  40.877  0.00  0.00     0.206 C 
ATOM     83  O4  BDP d 305       8.964  37.976  39.166  0.00  0.00    -0.348 OA
ATOM     84  O3  BDP d 305       9.040  35.495  37.780  0.00  0.00    -0.390 OA
ATOM     85  C2  BDP d 305      11.309  35.205  38.473  0.00  0.00     0.110 C 
ATOM     86  C1  BDP d 305      12.601  35.946  38.851  0.00  0.00     0.160 C 
ATOM     87  C4  BDP d 305      10.013  37.097  39.350  0.00  0.00     0.103 C 
ATOM     88  O6A BDP d 305      11.108  39.994  40.597  0.00  0.00    -0.646 OA
ATOM     89  C3  BDP d 305      10.233  36.209  38.111  0.00  0.00     0.092 C 
ATOM     90  O2  BDP d 305      11.593  34.332  37.377  0.00  0.00    -0.388 OA
ATOM     91  O5  BDP d 305      12.367  36.874  39.954  0.00  0.00    -0.340 OA
ATOM     92  H   BDP d 305      11.553  38.461  38.819  0.00  0.00     0.104 H 
ATOM     93  H   BDP d 305       9.200  34.943  36.998  0.00  0.00     0.210 HD
ATOM     94  H   BDP d 305      10.952  34.626  39.298  0.00  0.00     0.094 H 
ATOM     95  H   BDP d 305      12.926  36.497  37.994  0.00  0.00     0.133 H 
ATOM     96  H   BDP d 305       9.752  36.474  40.180  0.00  0.00     0.092 H 
ATOM     97  H   BDP d 305      10.510  36.814  37.273  0.00  0.00     0.091 H 
ATOM     98  H   BDP d 305      11.918  34.851  36.625  0.00  0.00     0.210 HD
ATOM     99  O6B BDP d 301      20.038  37.138  52.659  0.00  0.00    -0.646 OA
ATOM    100  C6  BDP d 301      19.896  35.923  52.919  0.00  0.00     0.206 C 
ATOM    101  O6A BDP d 301      20.328  34.919  52.312  0.00  0.00    -0.646 OA
ATOM    102  O5  BDP d 301      19.578  36.414  55.256  0.00  0.00    -0.340 OA
ATOM    103  C5  BDP d 301      19.074  35.613  54.163  0.00  0.00     0.152 C 
ATOM    104  C3  BDP d 301      16.851  35.544  55.319  0.00  0.00     0.092 C 
ATOM    105  C1  BDP d 301      18.868  36.184  56.511  0.00  0.00     0.156 C 
ATOM    106  O1  BDP d 301      19.536  37.049  57.551  0.00  0.00    -0.368 OA
ATOM    107  C4  BDP d 301      17.574  35.843  53.981  0.00  0.00     0.103 C 
ATOM    108  C2  BDP d 301      17.400  36.472  56.393  0.00  0.00     0.110 C 
ATOM    109  O2  BDP d 301      16.788  36.223  57.656  0.00  0.00    -0.388 OA
ATOM    110  O4  BDP d 301      17.188  34.889  53.059  0.00  0.00    -0.348 OA
ATOM    111  O3  BDP d 301      15.448  35.776  55.178  0.00  0.00    -0.390 OA
ATOM    112  H   BDP d 301      19.181  34.569  54.370  0.00  0.00     0.104 H 
ATOM    113  H   BDP d 301      17.015  34.522  55.590  0.00  0.00     0.091 H 
ATOM    114  H   BDP d 301      18.922  35.152  56.788  0.00  0.00     0.133 H 
ATOM    115  H   BDP d 301      19.478  37.980  57.285  0.00  0.00     0.212 HD
ATOM    116  H   BDP d 301      17.346  36.843  53.676  0.00  0.00     0.092 H 
ATOM    117  H   BDP d 301      17.204  37.488  56.123  0.00  0.00     0.094 H 
ATOM    118  H   BDP d 301      16.953  35.304  57.920  0.00  0.00     0.210 HD
ATOM    119  H   BDP d 301      15.297  36.702  54.931  0.00  0.00     0.210 HD
ATOM    120  OSC ASG d 304      16.054  31.520  37.765  0.00  0.00    -0.572 OA
ATOM    121  O3  ASG d 304      13.597  35.021  39.235  0.00  0.00    -0.348 OA
ATOM    122  C5  ASG d 304      13.112  32.017  41.460  0.00  0.00     0.090 C 
ATOM    123  C6  ASG d 304      13.141  30.517  41.299  0.00  0.00     0.043 C 
ATOM    124  O4  ASG d 304      14.663  32.386  39.628  0.00  0.00    -0.246 OA
ATOM    125  C7  ASG d 304      15.510  36.805  42.143  0.00  0.00     0.214 C 
ATOM    126  C8  ASG d 304      15.228  38.268  42.399  0.00  0.00    -0.003 C 
ATOM    127  S   ASG d 304      14.680  31.733  38.172  0.00  0.00     0.252 S 
ATOM    128  OSB ASG d 304      13.976  30.463  38.191  0.00  0.00    -0.572 OA
ATOM    129  N   ASG d 304      14.377  36.099  41.764  0.00  0.00    -0.349 N 
ATOM    130  C4  ASG d 304      13.378  32.774  40.137  0.00  0.00     0.114 C 
ATOM    131  C3  ASG d 304      13.351  34.289  40.424  0.00  0.00     0.094 C 
ATOM    132  C1  ASG d 304      14.124  33.819  42.724  0.00  0.00     0.154 C 
ATOM    133  O7  ASG d 304      16.619  36.311  42.262  0.00  0.00    -0.274 OA
ATOM    134  O6  ASG d 304      12.480  29.878  42.393  0.00  0.00    -0.398 OA
ATOM    135  O5  ASG d 304      14.111  32.386  42.457  0.00  0.00    -0.349 OA
ATOM    136  C2  ASG d 304      14.412  34.630  41.457  0.00  0.00     0.087 C 
ATOM    137  OSA ASG d 304      14.022  32.624  37.230  0.00  0.00    -0.572 OA
ATOM    138  H   ASG d 304      12.129  32.301  41.772  0.00  0.00     0.090 H 
ATOM    139  H   ASG d 304      14.158  30.188  41.263  0.00  0.00     0.078 H 
ATOM    140  H   ASG d 304      12.635  30.259  40.393  0.00  0.00     0.078 H 
ATOM    141  H   ASG d 304      14.190  38.466  42.231  0.00  0.00     0.040 H 
ATOM    142  H   ASG d 304      15.817  38.866  41.737  0.00  0.00     0.040 H 
ATOM    143  H   ASG d 304      15.477  38.507  43.412  0.00  0.00     0.040 H 
ATOM    144  H   ASG d 304      13.520  36.579  41.695  0.00  0.00     0.163 HD
ATOM    145  H   ASG d 304      12.630  32.537  39.410  0.00  0.00     0.093 H 
ATOM    146  H   ASG d 304      12.383  34.552  40.799  0.00  0.00     0.091 H 
ATOM    147  H   ASG d 304      13.157  34.107  43.081  0.00  0.00     0.132 H 
ATOM    148  H   ASG d 304      12.932  30.106  43.221  0.00  0.00     0.209 HD
ATOM    149  H   ASG d 304      15.385  34.390  41.080  0.00  0.00     0.084 H 
ENDROOT
TORSDOF 38
ENDMDL
MODEL 35
REMARK VINA RESULT:      -6.2      2.675      3.196
REMARK  0 active torsions:
REMARK  status: ('A' for Active; 'I' for Inactive)
REMARK       I    between atoms: C6_2  and  C5_74 
REMARK       I    between atoms: C1_3  and  O4_24 
REMARK       I    between atoms: O6_4  and  C6_26 
REMARK       I    between atoms: C5_5  and  C6_12 
REMARK       I    between atoms: C4_6  and  O4_22 
REMARK       I    between atoms: C6_8  and  C5_90 
REMARK       I    between atoms: C6_8  and  O6_83 
REMARK       I    between atoms: O3_11  and  C3_60 
REMARK       I    between atoms: O3_11  and  C1_29 
REMARK       I    between atoms: C5_13  and  C6_18 
REMARK       I    between atoms: O4_14  and  C4_88 
REMARK       I    between atoms: O4_14  and  S_15 
REMARK       I    between atoms: C6_16  and  C5_28 
REMARK       I    between atoms: S_17  and  O4_22 
REMARK       I    between atoms: C6_18  and  O6_66 
REMARK       I    between atoms: O4_20  and  C4_46 
REMARK       I    between atoms: O4_20  and  C1_61 
REMARK       I    between atoms: O4_21  and  C4_54 
REMARK       I    between atoms: O4_21  and  S_40 
REMARK       I    between atoms: O4_24  and  C4_35 
REMARK       I    between atoms: O3_25  and  C3_48 
REMARK       I    between atoms: C6_26  and  C5_50 
REMARK       I    between atoms: C2_27  and  O2_55 
REMARK       I    between atoms: O3_31  and  C3_37 
REMARK       I    between atoms: C2_32  and  N_72 
REMARK       I    between atoms: C7_33  and  C8_39 
REMARK       I    between atoms: C7_33  and  N_52 
REMARK       I    between atoms: C1_34  and  O4_86 
REMARK       I    between atoms: C3_36  and  O3_87 
REMARK       I    between atoms: C2_47  and  O2_85 
REMARK       I    between atoms: N_52  and  C2_71 
REMARK       I    between atoms: C3_53  and  O3_81 
REMARK       I    between atoms: C1_56  and  O3_81 
REMARK       I    between atoms: C7_57  and  C8_64 
REMARK       I    between atoms: C7_57  and  N_63 
REMARK       I    between atoms: C8_58  and  C7_73 
REMARK       I    between atoms: C1_59  and  O1_68 
REMARK       I    between atoms: N_63  and  C2_67 
REMARK       I    between atoms: C4_69  and  O4_86 
REMARK       I    between atoms: N_72  and  C7_73 
REMARK       I    between atoms: C2_77  and  O2_82 
ROOT
ATOM      1  OSB ASG d 302      15.047  39.253  44.076  0.00  0.00    -0.572 OA
ATOM      2  O6  ASG d 302      15.102  35.293  42.171  0.00  0.00    -0.398 OA
ATOM      3  O4  ASG d 302      17.040  38.025  44.916  0.00  0.00    -0.246 OA
ATOM      4  S   ASG d 302      16.041  39.258  45.132  0.00  0.00     0.252 S 
ATOM      5  C6  ASG d 302      15.457  36.322  43.090  0.00  0.00     0.043 C 
ATOM      6  C2  ASG d 302      19.004  36.079  45.488  0.00  0.00     0.087 C 
ATOM      7  C1  ASG d 302      18.808  35.240  44.234  0.00  0.00     0.154 C 
ATOM      8  O5  ASG d 302      17.752  35.762  43.396  0.00  0.00    -0.349 OA
ATOM      9  C5  ASG d 302      16.478  35.821  44.079  0.00  0.00     0.090 C 
ATOM     10  O7  ASG d 302      21.347  37.405  46.508  0.00  0.00    -0.274 OA
ATOM     11  C3  ASG d 302      17.685  36.098  46.240  0.00  0.00     0.094 C 
ATOM     12  C8  ASG d 302      22.118  35.428  47.632  0.00  0.00    -0.003 C 
ATOM     13  OSA ASG d 302      15.383  39.150  46.421  0.00  0.00    -0.572 OA
ATOM     14  N   ASG d 302      20.074  35.480  46.339  0.00  0.00    -0.349 N 
ATOM     15  C7  ASG d 302      21.164  36.228  46.775  0.00  0.00     0.214 C 
ATOM     16  OSC ASG d 302      16.793  40.491  45.077  0.00  0.00    -0.572 OA
ATOM     17  O3  ASG d 302      17.847  36.909  47.347  0.00  0.00    -0.348 OA
ATOM     18  C4  ASG d 302      16.609  36.714  45.330  0.00  0.00     0.114 C 
ATOM     19  H   ASG d 302      14.445  35.633  41.544  0.00  0.00     0.209 HD
ATOM     20  H   ASG d 302      14.583  36.640  43.618  0.00  0.00     0.078 H 
ATOM     21  H   ASG d 302      15.879  37.141  42.545  0.00  0.00     0.078 H 
ATOM     22  H   ASG d 302      19.300  37.075  45.234  0.00  0.00     0.084 H 
ATOM     23  H   ASG d 302      18.545  34.252  44.548  0.00  0.00     0.132 H 
ATOM     24  H   ASG d 302      16.161  34.861  44.429  0.00  0.00     0.090 H 
ATOM     25  H   ASG d 302      17.394  35.109  46.529  0.00  0.00     0.091 H 
ATOM     26  H   ASG d 302      22.932  36.051  47.937  0.00  0.00     0.040 H 
ATOM     27  H   ASG d 302      22.494  34.599  47.069  0.00  0.00     0.040 H 
ATOM     28  H   ASG d 302      21.602  35.066  48.497  0.00  0.00     0.040 H 
ATOM     29  H   ASG d 302      20.008  34.533  46.599  0.00  0.00     0.163 HD
ATOM     30  H   ASG d 302      15.675  36.786  45.847  0.00  0.00     0.093 H 
ATOM     31  C6  BDP d 303      14.351  34.869  49.749  0.00  0.00     0.206 C 
ATOM     32  O4  BDP d 303      15.842  35.565  52.223  0.00  0.00    -0.348 OA
ATOM     33  O3  BDP d 303      17.970  37.428  52.089  0.00  0.00    -0.390 OA
ATOM     34  C3  BDP d 303      17.644  36.536  51.011  0.00  0.00     0.092 C 
ATOM     35  O6B BDP d 303      13.533  35.808  49.832  0.00  0.00    -0.646 OA
ATOM     36  C4  BDP d 303      16.145  36.206  51.031  0.00  0.00     0.103 C 
ATOM     37  C2  BDP d 303      17.960  37.217  49.694  0.00  0.00     0.110 C 
ATOM     38  O6A BDP d 303      14.146  33.642  49.601  0.00  0.00    -0.646 OA
ATOM     39  C1  BDP d 303      17.595  36.281  48.554  0.00  0.00     0.160 C 
ATOM     40  C5  BDP d 303      15.824  35.257  49.844  0.00  0.00     0.152 C 
ATOM     41  O5  BDP d 303      16.190  35.913  48.598  0.00  0.00    -0.340 OA
ATOM     42  O2  BDP d 303      19.355  37.523  49.612  0.00  0.00    -0.388 OA
ATOM     43  H   BDP d 303      18.919  37.628  52.067  0.00  0.00     0.210 HD
ATOM     44  H   BDP d 303      18.213  35.637  51.122  0.00  0.00     0.091 H 
ATOM     45  H   BDP d 303      15.568  37.103  50.945  0.00  0.00     0.092 H 
ATOM     46  H   BDP d 303      17.398  38.126  49.628  0.00  0.00     0.094 H 
ATOM     47  H   BDP d 303      18.185  35.394  48.653  0.00  0.00     0.133 H 
ATOM     48  H   BDP d 303      16.386  34.363  50.016  0.00  0.00     0.104 H 
ATOM     49  H   BDP d 303      19.870  36.703  49.671  0.00  0.00     0.210 HD
ATOM     50  C1  ASG d 306       6.821  34.269  53.487  0.00  0.00     0.151 C 
ATOM     51  C4  ASG d 306       4.274  35.598  52.903  0.00  0.00     0.089 C 
ATOM     52  C6  ASG d 306       5.668  37.717  52.719  0.00  0.00     0.043 C 
ATOM     53  S   ASG d 306       2.511  36.564  54.514  0.00  0.00     0.252 S 
ATOM     54  O4  ASG d 306       3.937  35.919  54.253  0.00  0.00    -0.249 OA
ATOM     55  OSB ASG d 306       2.349  36.790  55.939  0.00  0.00    -0.572 OA
ATOM     56  OSA ASG d 306       2.424  37.831  53.811  0.00  0.00    -0.572 OA
ATOM     57  C3  ASG d 306       4.333  34.034  52.769  0.00  0.00    -0.014 C 
ATOM     58  C7  ASG d 306       5.863  31.339  54.889  0.00  0.00     0.214 C 
ATOM     59  N   ASG d 306       5.744  32.099  53.723  0.00  0.00    -0.352 N 
ATOM     60  C8  ASG d 306       6.094  29.876  54.606  0.00  0.00    -0.003 C 
ATOM     61  C2  ASG d 306       5.524  33.579  53.780  0.00  0.00     0.062 C 
ATOM     62  O5  ASG d 306       6.665  35.707  53.536  0.00  0.00    -0.349 OA
ATOM     63  O6  ASG d 306       6.981  38.244  52.533  0.00  0.00    -0.398 OA
ATOM     64  O7  ASG d 306       5.797  31.794  56.027  0.00  0.00    -0.274 OA
ATOM     65  OSC ASG d 306       1.477  35.672  54.038  0.00  0.00    -0.572 OA
ATOM     66  C5  ASG d 306       5.671  36.210  52.591  0.00  0.00     0.088 C 
ATOM     67  H   ASG d 306       7.148  34.012  52.502  0.00  0.00     0.132 H 
ATOM     68  H   ASG d 306       3.550  35.990  52.219  0.00  0.00     0.089 H 
ATOM     69  H   ASG d 306       5.317  37.986  53.694  0.00  0.00     0.078 H 
ATOM     70  H   ASG d 306       5.025  38.125  51.967  0.00  0.00     0.078 H 
ATOM     71  H   ASG d 306       4.563  33.750  51.764  0.00  0.00     0.040 H 
ATOM     72  H   ASG d 306       3.399  33.571  53.009  0.00  0.00     0.040 H 
ATOM     73  H   ASG d 306       5.807  31.654  52.847  0.00  0.00     0.163 HD
ATOM     74  H   ASG d 306       6.114  29.716  53.548  0.00  0.00     0.040 H 
ATOM     75  H   ASG d 306       5.304  29.299  55.040  0.00  0.00     0.040 H 
ATOM     76  H   ASG d 306       7.029  29.574  55.030  0.00  0.00     0.040 H 
ATOM     77  H   ASG d 306       5.202  33.863  54.760  0.00  0.00     0.080 H 
ATOM     78  H   ASG d 306       7.574  37.881  53.210  0.00  0.00     0.209 HD
ATOM     79  H   ASG d 306       5.908  35.930  51.585  0.00  0.00     0.090 H 
ATOM     80  C5  BDP d 305      10.053  33.102  54.445  0.00  0.00     0.152 C 
ATOM     81  O6B BDP d 305      10.444  33.131  52.130  0.00  0.00    -0.646 OA
ATOM     82  C6  BDP d 305       9.946  32.473  53.062  0.00  0.00     0.206 C 
ATOM     83  O4  BDP d 305       7.760  33.857  54.429  0.00  0.00    -0.348 OA
ATOM     84  O3  BDP d 305       8.324  35.900  56.322  0.00  0.00    -0.390 OA
ATOM     85  C2  BDP d 305      10.648  35.358  56.178  0.00  0.00     0.110 C 
ATOM     86  C1  BDP d 305      11.649  34.225  55.908  0.00  0.00     0.160 C 
ATOM     87  C4  BDP d 305       9.058  34.266  54.658  0.00  0.00     0.103 C 
ATOM     88  O6A BDP d 305       9.361  31.362  53.038  0.00  0.00    -0.646 OA
ATOM     89  C3  BDP d 305       9.233  34.823  56.084  0.00  0.00     0.092 C 
ATOM     90  O2  BDP d 305      10.913  35.897  57.476  0.00  0.00    -0.388 OA
ATOM     91  O5  BDP d 305      11.411  33.617  54.602  0.00  0.00    -0.340 OA
ATOM     92  H   BDP d 305       9.818  32.347  55.166  0.00  0.00     0.104 H 
ATOM     93  H   BDP d 305       8.450  36.236  57.224  0.00  0.00     0.210 HD
ATOM     94  H   BDP d 305      10.753  36.135  55.449  0.00  0.00     0.094 H 
ATOM     95  H   BDP d 305      11.516  33.483  56.667  0.00  0.00     0.133 H 
ATOM     96  H   BDP d 305       9.267  35.044  53.955  0.00  0.00     0.092 H 
ATOM     97  H   BDP d 305       9.043  34.054  56.803  0.00  0.00     0.091 H 
ATOM     98  H   BDP d 305      10.820  35.197  58.141  0.00  0.00     0.210 HD
ATOM     99  O6B BDP d 301      21.623  32.016  43.949  0.00  0.00    -0.646 OA
ATOM    100  C6  BDP d 301      21.992  33.212  43.946  0.00  0.00     0.206 C 
ATOM    101  O6A BDP d 301      22.569  33.874  44.836  0.00  0.00    -0.646 OA
ATOM    102  O5  BDP d 301      22.165  33.197  41.543  0.00  0.00    -0.340 OA
ATOM    103  C5  BDP d 301      21.699  33.981  42.664  0.00  0.00     0.152 C 
ATOM    104  C3  BDP d 301      20.041  35.074  41.135  0.00  0.00     0.092 C 
ATOM    105  C1  BDP d 301      21.947  33.851  40.256  0.00  0.00     0.156 C 
ATOM    106  O1  BDP d 301      22.523  32.938  39.202  0.00  0.00    -0.368 OA
ATOM    107  C4  BDP d 301      20.224  34.340  42.488  0.00  0.00     0.103 C 
ATOM    108  C2  BDP d 301      20.497  34.155  40.012  0.00  0.00     0.110 C 
ATOM    109  O2  BDP d 301      20.376  34.788  38.740  0.00  0.00    -0.388 OA
ATOM    110  O4  BDP d 301      19.964  35.239  43.504  0.00  0.00    -0.348 OA
ATOM    111  O3  BDP d 301      18.664  35.399  40.938  0.00  0.00    -0.390 OA
ATOM    112  H   BDP d 301      22.217  34.915  42.722  0.00  0.00     0.104 H 
ATOM    113  H   BDP d 301      20.620  35.974  41.138  0.00  0.00     0.091 H 
ATOM    114  H   BDP d 301      22.433  34.804  40.233  0.00  0.00     0.133 H 
ATOM    115  H   BDP d 301      22.073  32.080  39.236  0.00  0.00     0.212 HD
ATOM    116  H   BDP d 301      19.587  33.482  42.509  0.00  0.00     0.092 H 
ATOM    117  H   BDP d 301      19.892  33.272  40.002  0.00  0.00     0.094 H 
ATOM    118  H   BDP d 301      20.918  35.593  38.727  0.00  0.00     0.210 HD
ATOM    119  H   BDP d 301      18.137  34.584  40.936  0.00  0.00     0.210 HD
ATOM    120  OSC ASG d 304      16.005  36.742  58.625  0.00  0.00    -0.572 OA
ATOM    121  O3  ASG d 304      12.970  34.722  55.948  0.00  0.00    -0.348 OA
ATOM    122  C5  ASG d 304      14.188  37.937  54.402  0.00  0.00     0.090 C 
ATOM    123  C6  ASG d 304      14.697  39.268  54.898  0.00  0.00     0.043 C 
ATOM    124  O4  ASG d 304      14.956  36.748  56.376  0.00  0.00    -0.246 OA
ATOM    125  C7  ASG d 304      14.844  32.727  53.155  0.00  0.00     0.214 C 
ATOM    126  C8  ASG d 304      14.147  31.542  52.525  0.00  0.00    -0.003 C 
ATOM    127  S   ASG d 304      14.808  37.144  57.915  0.00  0.00     0.252 S 
ATOM    128  OSB ASG d 304      14.627  38.579  58.041  0.00  0.00    -0.572 OA
ATOM    129  N   ASG d 304      13.973  33.766  53.449  0.00  0.00    -0.349 N 
ATOM    130  C4  ASG d 304      13.805  36.971  55.547  0.00  0.00     0.114 C 
ATOM    131  C3  ASG d 304      13.326  35.641  54.928  0.00  0.00     0.094 C 
ATOM    132  C1  ASG d 304      14.805  36.065  52.994  0.00  0.00     0.154 C 
ATOM    133  O7  ASG d 304      16.044  32.753  53.372  0.00  0.00    -0.274 OA
ATOM    134  O6  ASG d 304      14.623  40.254  53.867  0.00  0.00    -0.398 OA
ATOM    135  O5  ASG d 304      15.224  37.338  53.567  0.00  0.00    -0.349 OA
ATOM    136  C2  ASG d 304      14.437  35.047  54.078  0.00  0.00     0.087 C 
ATOM    137  OSA ASG d 304      13.651  36.470  58.483  0.00  0.00    -0.572 OA
ATOM    138  H   ASG d 304      13.291  38.108  53.845  0.00  0.00     0.090 H 
ATOM    139  H   ASG d 304      15.715  39.161  55.209  0.00  0.00     0.078 H 
ATOM    140  H   ASG d 304      14.090  39.584  55.720  0.00  0.00     0.078 H 
ATOM    141  H   ASG d 304      13.101  31.749  52.435  0.00  0.00     0.040 H 
ATOM    142  H   ASG d 304      14.287  30.678  53.141  0.00  0.00     0.040 H 
ATOM    143  H   ASG d 304      14.560  31.359  51.555  0.00  0.00     0.040 H 
ATOM    144  H   ASG d 304      13.018  33.659  53.237  0.00  0.00     0.163 HD
ATOM    145  H   ASG d 304      13.020  37.386  56.146  0.00  0.00     0.093 H 
ATOM    146  H   ASG d 304      12.468  35.834  54.319  0.00  0.00     0.091 H 
ATOM    147  H   ASG d 304      13.933  36.232  52.396  0.00  0.00     0.132 H 
ATOM    148  H   ASG d 304      15.172  39.977  53.115  0.00  0.00     0.209 HD
ATOM    149  H   ASG d 304      15.292  34.832  54.685  0.00  0.00     0.084 H 
ENDROOT
TORSDOF 38
ENDMDL
MODEL 36
REMARK VINA RESULT:      -6.1      6.248     12.280
REMARK  0 active torsions:
REMARK  status: ('A' for Active; 'I' for Inactive)
REMARK       I    between atoms: C6_2  and  C5_74 
REMARK       I    between atoms: C1_3  and  O4_24 
REMARK       I    between atoms: O6_4  and  C6_26 
REMARK       I    between atoms: C5_5  and  C6_12 
REMARK       I    between atoms: C4_6  and  O4_22 
REMARK       I    between atoms: C6_8  and  C5_90 
REMARK       I    between atoms: C6_8  and  O6_83 
REMARK       I    between atoms: O3_11  and  C3_60 
REMARK       I    between atoms: O3_11  and  C1_29 
REMARK       I    between atoms: C5_13  and  C6_18 
REMARK       I    between atoms: O4_14  and  C4_88 
REMARK       I    between atoms: O4_14  and  S_15 
REMARK       I    between atoms: C6_16  and  C5_28 
REMARK       I    between atoms: S_17  and  O4_22 
REMARK       I    between atoms: C6_18  and  O6_66 
REMARK       I    between atoms: O4_20  and  C4_46 
REMARK       I    between atoms: O4_20  and  C1_61 
REMARK       I    between atoms: O4_21  and  C4_54 
REMARK       I    between atoms: O4_21  and  S_40 
REMARK       I    between atoms: O4_24  and  C4_35 
REMARK       I    between atoms: O3_25  and  C3_48 
REMARK       I    between atoms: C6_26  and  C5_50 
REMARK       I    between atoms: C2_27  and  O2_55 
REMARK       I    between atoms: O3_31  and  C3_37 
REMARK       I    between atoms: C2_32  and  N_72 
REMARK       I    between atoms: C7_33  and  C8_39 
REMARK       I    between atoms: C7_33  and  N_52 
REMARK       I    between atoms: C1_34  and  O4_86 
REMARK       I    between atoms: C3_36  and  O3_87 
REMARK       I    between atoms: C2_47  and  O2_85 
REMARK       I    between atoms: N_52  and  C2_71 
REMARK       I    between atoms: C3_53  and  O3_81 
REMARK       I    between atoms: C1_56  and  O3_81 
REMARK       I    between atoms: C7_57  and  C8_64 
REMARK       I    between atoms: C7_57  and  N_63 
REMARK       I    between atoms: C8_58  and  C7_73 
REMARK       I    between atoms: C1_59  and  O1_68 
REMARK       I    between atoms: N_63  and  C2_67 
REMARK       I    between atoms: C4_69  and  O4_86 
REMARK       I    between atoms: N_72  and  C7_73 
REMARK       I    between atoms: C2_77  and  O2_82 
ROOT
ATOM      1  OSB ASG d 302       9.169  36.432  43.947  0.00  0.00    -0.572 OA
ATOM      2  O6  ASG d 302       8.669  32.110  43.331  0.00  0.00    -0.398 OA
ATOM      3  O4  ASG d 302      10.421  35.800  41.894  0.00  0.00    -0.246 OA
ATOM      4  S   ASG d 302      10.192  36.901  43.034  0.00  0.00     0.252 S 
ATOM      5  C6  ASG d 302       9.210  33.416  43.153  0.00  0.00     0.043 C 
ATOM      6  C2  ASG d 302      11.655  34.405  39.772  0.00  0.00     0.087 C 
ATOM      7  C1  ASG d 302      10.740  33.189  39.789  0.00  0.00     0.154 C 
ATOM      8  O5  ASG d 302       9.747  33.277  40.837  0.00  0.00    -0.349 OA
ATOM      9  C5  ASG d 302      10.337  33.392  42.153  0.00  0.00     0.090 C 
ATOM     10  O7  ASG d 302      12.250  36.272  37.662  0.00  0.00    -0.274 OA
ATOM     11  C3  ASG d 302      12.321  34.499  41.133  0.00  0.00     0.094 C 
ATOM     12  C8  ASG d 302      13.981  34.875  36.758  0.00  0.00    -0.003 C 
ATOM     13  OSA ASG d 302      11.426  37.132  43.762  0.00  0.00    -0.572 OA
ATOM     14  N   ASG d 302      12.685  34.251  38.703  0.00  0.00    -0.349 N 
ATOM     15  C7  ASG d 302      12.883  35.230  37.733  0.00  0.00     0.214 C 
ATOM     16  OSC ASG d 302       9.757  38.136  42.419  0.00  0.00    -0.572 OA
ATOM     17  O3  ASG d 302      13.105  35.636  41.136  0.00  0.00    -0.348 OA
ATOM     18  C4  ASG d 302      11.229  34.649  42.206  0.00  0.00     0.114 C 
ATOM     19  H   ASG d 302       7.947  32.144  43.976  0.00  0.00     0.209 HD
ATOM     20  H   ASG d 302       9.579  33.774  44.091  0.00  0.00     0.078 H 
ATOM     21  H   ASG d 302       8.438  34.062  42.788  0.00  0.00     0.078 H 
ATOM     22  H   ASG d 302      11.097  35.295  39.570  0.00  0.00     0.084 H 
ATOM     23  H   ASG d 302      11.353  32.330  39.964  0.00  0.00     0.132 H 
ATOM     24  H   ASG d 302      10.973  32.564  42.386  0.00  0.00     0.090 H 
ATOM     25  H   ASG d 302      12.910  33.628  41.333  0.00  0.00     0.091 H 
ATOM     26  H   ASG d 302      14.088  35.660  36.040  0.00  0.00     0.040 H 
ATOM     27  H   ASG d 302      13.731  33.963  36.256  0.00  0.00     0.040 H 
ATOM     28  H   ASG d 302      14.902  34.749  37.288  0.00  0.00     0.040 H 
ATOM     29  H   ASG d 302      13.239  33.437  38.682  0.00  0.00     0.163 HD
ATOM     30  H   ASG d 302      11.667  34.765  43.175  0.00  0.00     0.093 H 
ATOM     31  C6  BDP d 303      15.943  34.056  44.543  0.00  0.00     0.206 C 
ATOM     32  O4  BDP d 303      18.093  35.693  43.308  0.00  0.00    -0.348 OA
ATOM     33  O3  BDP d 303      17.417  37.665  41.392  0.00  0.00    -0.390 OA
ATOM     34  C3  BDP d 303      16.682  36.440  41.545  0.00  0.00     0.092 C 
ATOM     35  O6B BDP d 303      15.690  34.862  45.462  0.00  0.00    -0.646 OA
ATOM     36  C4  BDP d 303      16.766  35.949  42.997  0.00  0.00     0.103 C 
ATOM     37  C2  BDP d 303      15.224  36.696  41.217  0.00  0.00     0.110 C 
ATOM     38  O6A BDP d 303      16.200  32.832  44.602  0.00  0.00    -0.646 OA
ATOM     39  C1  BDP d 303      14.444  35.404  41.399  0.00  0.00     0.160 C 
ATOM     40  C5  BDP d 303      15.948  34.637  43.131  0.00  0.00     0.152 C 
ATOM     41  O5  BDP d 303      14.566  34.897  42.755  0.00  0.00    -0.340 OA
ATOM     42  O2  BDP d 303      15.086  37.132  39.861  0.00  0.00    -0.388 OA
ATOM     43  H   BDP d 303      17.357  37.965  40.472  0.00  0.00     0.210 HD
ATOM     44  H   BDP d 303      17.097  35.704  40.890  0.00  0.00     0.091 H 
ATOM     45  H   BDP d 303      16.374  36.691  43.662  0.00  0.00     0.092 H 
ATOM     46  H   BDP d 303      14.848  37.457  41.869  0.00  0.00     0.094 H 
ATOM     47  H   BDP d 303      14.845  34.678  40.724  0.00  0.00     0.133 H 
ATOM     48  H   BDP d 303      16.418  33.923  42.487  0.00  0.00     0.104 H 
ATOM     49  H   BDP d 303      15.425  36.445  39.265  0.00  0.00     0.210 HD
ATOM     50  C1  ASG d 306      19.456  33.752  52.198  0.00  0.00     0.151 C 
ATOM     51  C4  ASG d 306      18.396  34.491  54.829  0.00  0.00     0.089 C 
ATOM     52  C6  ASG d 306      17.568  36.596  53.667  0.00  0.00     0.043 C 
ATOM     53  S   ASG d 306      19.551  35.695  56.793  0.00  0.00     0.252 S 
ATOM     54  O4  ASG d 306      19.557  35.184  55.290  0.00  0.00    -0.249 OA
ATOM     55  OSB ASG d 306      20.818  36.346  57.075  0.00  0.00    -0.572 OA
ATOM     56  OSA ASG d 306      18.469  36.647  56.970  0.00  0.00    -0.572 OA
ATOM     57  C3  ASG d 306      18.784  32.988  54.590  0.00  0.00    -0.014 C 
ATOM     58  C7  ASG d 306      21.712  31.333  52.923  0.00  0.00     0.214 C 
ATOM     59  N   ASG d 306      20.359  31.656  53.044  0.00  0.00    -0.352 N 
ATOM     60  C8  ASG d 306      21.931  29.898  52.514  0.00  0.00    -0.003 C 
ATOM     61  C2  ASG d 306      19.921  33.035  53.428  0.00  0.00     0.062 C 
ATOM     62  O5  ASG d 306      19.026  35.097  52.514  0.00  0.00    -0.349 OA
ATOM     63  O6  ASG d 306      17.257  37.195  52.410  0.00  0.00    -0.398 OA
ATOM     64  O7  ASG d 306      22.636  32.118  53.115  0.00  0.00    -0.274 OA
ATOM     65  OSC ASG d 306      19.364  34.575  57.689  0.00  0.00    -0.572 OA
ATOM     66  C5  ASG d 306      17.940  35.140  53.490  0.00  0.00     0.088 C 
ATOM     67  H   ASG d 306      18.619  33.234  51.779  0.00  0.00     0.132 H 
ATOM     68  H   ASG d 306      17.601  34.548  55.544  0.00  0.00     0.089 H 
ATOM     69  H   ASG d 306      18.390  37.117  54.110  0.00  0.00     0.078 H 
ATOM     70  H   ASG d 306      16.705  36.655  54.298  0.00  0.00     0.078 H 
ATOM     71  H   ASG d 306      17.934  32.426  54.263  0.00  0.00     0.040 H 
ATOM     72  H   ASG d 306      19.136  32.514  55.483  0.00  0.00     0.040 H 
ATOM     73  H   ASG d 306      19.679  30.964  52.874  0.00  0.00     0.163 HD
ATOM     74  H   ASG d 306      20.985  29.410  52.406  0.00  0.00     0.040 H 
ATOM     75  H   ASG d 306      22.507  29.397  53.264  0.00  0.00     0.040 H 
ATOM     76  H   ASG d 306      22.457  29.869  51.582  0.00  0.00     0.040 H 
ATOM     77  H   ASG d 306      20.745  33.578  53.846  0.00  0.00     0.080 H 
ATOM     78  H   ASG d 306      18.031  37.147  51.828  0.00  0.00     0.209 HD
ATOM     79  H   ASG d 306      17.089  34.584  53.156  0.00  0.00     0.090 H 
ATOM     80  C5  BDP d 305      20.834  33.370  48.930  0.00  0.00     0.152 C 
ATOM     81  O6B BDP d 305      18.649  32.702  48.389  0.00  0.00    -0.646 OA
ATOM     82  C6  BDP d 305      19.732  32.322  48.873  0.00  0.00     0.206 C 
ATOM     83  O4  BDP d 305      20.507  33.786  51.286  0.00  0.00    -0.348 OA
ATOM     84  O3  BDP d 305      21.641  36.384  51.078  0.00  0.00    -0.390 OA
ATOM     85  C2  BDP d 305      21.748  36.121  48.704  0.00  0.00     0.110 C 
ATOM     86  C1  BDP d 305      21.893  35.095  47.570  0.00  0.00     0.160 C 
ATOM     87  C4  BDP d 305      20.626  34.407  50.058  0.00  0.00     0.103 C 
ATOM     88  O6A BDP d 305      20.056  31.198  49.331  0.00  0.00    -0.646 OA
ATOM     89  C3  BDP d 305      21.795  35.410  50.043  0.00  0.00     0.092 C 
ATOM     90  O2  BDP d 305      22.805  37.077  48.588  0.00  0.00    -0.388 OA
ATOM     91  O5  BDP d 305      20.852  34.075  47.651  0.00  0.00    -0.340 OA
ATOM     92  H   BDP d 305      21.756  32.865  49.129  0.00  0.00     0.104 H 
ATOM     93  H   BDP d 305      22.386  37.005  51.051  0.00  0.00     0.210 HD
ATOM     94  H   BDP d 305      20.809  36.628  48.636  0.00  0.00     0.094 H 
ATOM     95  H   BDP d 305      22.850  34.627  47.672  0.00  0.00     0.133 H 
ATOM     96  H   BDP d 305      19.713  34.937  49.889  0.00  0.00     0.092 H 
ATOM     97  H   BDP d 305      22.720  34.896  50.196  0.00  0.00     0.091 H 
ATOM     98  H   BDP d 305      23.660  36.623  48.650  0.00  0.00     0.210 HD
ATOM     99  O6B BDP d 301      11.607  30.426  36.626  0.00  0.00    -0.646 OA
ATOM    100  C6  BDP d 301      11.223  31.592  36.390  0.00  0.00     0.206 C 
ATOM    101  O6A BDP d 301      11.863  32.573  35.951  0.00  0.00    -0.646 OA
ATOM    102  O5  BDP d 301       8.964  30.827  36.054  0.00  0.00    -0.340 OA
ATOM    103  C5  BDP d 301       9.752  31.865  36.678  0.00  0.00     0.152 C 
ATOM    104  C3  BDP d 301       7.903  32.190  38.338  0.00  0.00     0.092 C 
ATOM    105  C1  BDP d 301       7.527  31.000  36.255  0.00  0.00     0.156 C 
ATOM    106  O1  BDP d 301       6.848  29.875  35.512  0.00  0.00    -0.368 OA
ATOM    107  C4  BDP d 301       9.426  31.961  38.168  0.00  0.00     0.103 C 
ATOM    108  C2  BDP d 301       7.156  31.023  37.709  0.00  0.00     0.110 C 
ATOM    109  O2  BDP d 301       5.745  31.194  37.812  0.00  0.00    -0.388 OA
ATOM    110  O4  BDP d 301      10.084  33.099  38.594  0.00  0.00    -0.348 OA
ATOM    111  O3  BDP d 301       7.572  32.259  39.726  0.00  0.00    -0.390 OA
ATOM    112  H   BDP d 301       9.515  32.826  36.271  0.00  0.00     0.104 H 
ATOM    113  H   BDP d 301       7.628  33.108  37.863  0.00  0.00     0.091 H 
ATOM    114  H   BDP d 301       7.207  31.947  35.876  0.00  0.00     0.133 H 
ATOM    115  H   BDP d 301       7.149  29.024  35.867  0.00  0.00     0.212 HD
ATOM    116  H   BDP d 301       9.709  31.081  38.708  0.00  0.00     0.092 H 
ATOM    117  H   BDP d 301       7.419  30.116  38.212  0.00  0.00     0.094 H 
ATOM    118  H   BDP d 301       5.484  32.013  37.362  0.00  0.00     0.210 HD
ATOM    119  H   BDP d 301       7.821  31.427  40.160  0.00  0.00     0.210 HD
ATOM    120  OSC ASG d 304      23.758  38.879  43.709  0.00  0.00    -0.572 OA
ATOM    121  O3  ASG d 304      21.806  35.741  46.317  0.00  0.00    -0.348 OA
ATOM    122  C5  ASG d 304      19.327  38.413  45.356  0.00  0.00     0.090 C 
ATOM    123  C6  ASG d 304      19.373  39.886  45.030  0.00  0.00     0.043 C 
ATOM    124  O4  ASG d 304      21.603  38.030  44.598  0.00  0.00    -0.246 OA
ATOM    125  C7  ASG d 304      19.875  33.205  44.051  0.00  0.00     0.214 C 
ATOM    126  C8  ASG d 304      19.649  31.803  44.569  0.00  0.00    -0.003 C 
ATOM    127  S   ASG d 304      22.922  38.878  44.892  0.00  0.00     0.252 S 
ATOM    128  OSB ASG d 304      22.566  40.243  45.238  0.00  0.00    -0.572 OA
ATOM    129  N   ASG d 304      19.787  34.165  45.048  0.00  0.00    -0.349 N 
ATOM    130  C4  ASG d 304      20.714  37.827  45.708  0.00  0.00     0.114 C 
ATOM    131  C3  ASG d 304      20.552  36.320  45.995  0.00  0.00     0.094 C 
ATOM    132  C1  ASG d 304      18.628  36.281  44.444  0.00  0.00     0.154 C 
ATOM    133  O7  ASG d 304      20.106  33.450  42.878  0.00  0.00    -0.274 OA
ATOM    134  O6  ASG d 304      18.074  40.470  45.141  0.00  0.00    -0.398 OA
ATOM    135  O5  ASG d 304      18.764  37.713  44.206  0.00  0.00    -0.349 OA
ATOM    136  C2  ASG d 304      19.975  35.629  44.770  0.00  0.00     0.087 C 
ATOM    137  OSA ASG d 304      23.646  38.283  46.004  0.00  0.00    -0.572 OA
ATOM    138  H   ASG d 304      18.719  38.282  46.226  0.00  0.00     0.090 H 
ATOM    139  H   ASG d 304      19.730  40.014  44.030  0.00  0.00     0.078 H 
ATOM    140  H   ASG d 304      20.029  40.371  45.723  0.00  0.00     0.078 H 
ATOM    141  H   ASG d 304      19.466  31.836  45.623  0.00  0.00     0.040 H 
ATOM    142  H   ASG d 304      20.518  31.208  44.377  0.00  0.00     0.040 H 
ATOM    143  H   ASG d 304      18.805  31.370  44.074  0.00  0.00     0.040 H 
ATOM    144  H   ASG d 304      19.595  33.877  45.969  0.00  0.00     0.163 HD
ATOM    145  H   ASG d 304      21.121  38.311  46.571  0.00  0.00     0.093 H 
ATOM    146  H   ASG d 304      19.889  36.197  46.826  0.00  0.00     0.091 H 
ATOM    147  H   ASG d 304      17.984  36.135  45.286  0.00  0.00     0.132 H 
ATOM    148  H   ASG d 304      17.471  40.037  44.516  0.00  0.00     0.209 HD
ATOM    149  H   ASG d 304      20.643  35.729  43.941  0.00  0.00     0.084 H 
ENDROOT
TORSDOF 38
ENDMDL
MODEL 37
REMARK VINA RESULT:      -6.1      7.551     14.789
REMARK  0 active torsions:
REMARK  status: ('A' for Active; 'I' for Inactive)
REMARK       I    between atoms: C6_2  and  C5_74 
REMARK       I    between atoms: C1_3  and  O4_24 
REMARK       I    between atoms: O6_4  and  C6_26 
REMARK       I    between atoms: C5_5  and  C6_12 
REMARK       I    between atoms: C4_6  and  O4_22 
REMARK       I    between atoms: C6_8  and  C5_90 
REMARK       I    between atoms: C6_8  and  O6_83 
REMARK       I    between atoms: O3_11  and  C3_60 
REMARK       I    between atoms: O3_11  and  C1_29 
REMARK       I    between atoms: C5_13  and  C6_18 
REMARK       I    between atoms: O4_14  and  C4_88 
REMARK       I    between atoms: O4_14  and  S_15 
REMARK       I    between atoms: C6_16  and  C5_28 
REMARK       I    between atoms: S_17  and  O4_22 
REMARK       I    between atoms: C6_18  and  O6_66 
REMARK       I    between atoms: O4_20  and  C4_46 
REMARK       I    between atoms: O4_20  and  C1_61 
REMARK       I    between atoms: O4_21  and  C4_54 
REMARK       I    between atoms: O4_21  and  S_40 
REMARK       I    between atoms: O4_24  and  C4_35 
REMARK       I    between atoms: O3_25  and  C3_48 
REMARK       I    between atoms: C6_26  and  C5_50 
REMARK       I    between atoms: C2_27  and  O2_55 
REMARK       I    between atoms: O3_31  and  C3_37 
REMARK       I    between atoms: C2_32  and  N_72 
REMARK       I    between atoms: C7_33  and  C8_39 
REMARK       I    between atoms: C7_33  and  N_52 
REMARK       I    between atoms: C1_34  and  O4_86 
REMARK       I    between atoms: C3_36  and  O3_87 
REMARK       I    between atoms: C2_47  and  O2_85 
REMARK       I    between atoms: N_52  and  C2_71 
REMARK       I    between atoms: C3_53  and  O3_81 
REMARK       I    between atoms: C1_56  and  O3_81 
REMARK       I    between atoms: C7_57  and  C8_64 
REMARK       I    between atoms: C7_57  and  N_63 
REMARK       I    between atoms: C8_58  and  C7_73 
REMARK       I    between atoms: C1_59  and  O1_68 
REMARK       I    between atoms: N_63  and  C2_67 
REMARK       I    between atoms: C4_69  and  O4_86 
REMARK       I    between atoms: N_72  and  C7_73 
REMARK       I    between atoms: C2_77  and  O2_82 
ROOT
ATOM      1  OSB ASG d 302       5.175  32.557  42.283  0.00  0.00    -0.572 OA
ATOM      2  O6  ASG d 302       5.849  36.619  40.749  0.00  0.00    -0.398 OA
ATOM      3  O4  ASG d 302       3.331  34.005  43.110  0.00  0.00    -0.246 OA
ATOM      4  S   ASG d 302       4.116  32.619  43.272  0.00  0.00     0.252 S 
ATOM      5  C6  ASG d 302       5.278  35.586  41.546  0.00  0.00     0.043 C 
ATOM      6  C2  ASG d 302       1.641  36.178  43.739  0.00  0.00     0.087 C 
ATOM      7  C1  ASG d 302       2.050  37.076  42.581  0.00  0.00     0.154 C 
ATOM      8  O5  ASG d 302       3.076  36.467  41.763  0.00  0.00    -0.349 OA
ATOM      9  C5  ASG d 302       4.273  36.157  42.514  0.00  0.00     0.090 C 
ATOM     10  O7  ASG d 302      -0.942  35.151  44.490  0.00  0.00    -0.274 OA
ATOM     11  C3  ASG d 302       2.884  35.895  44.563  0.00  0.00     0.094 C 
ATOM     12  C8  ASG d 302      -1.490  37.126  45.742  0.00  0.00    -0.003 C 
ATOM     13  OSA ASG d 302       4.687  32.519  44.603  0.00  0.00    -0.572 OA
ATOM     14  N   ASG d 302       0.612  36.864  44.575  0.00  0.00    -0.349 N 
ATOM     15  C7  ASG d 302      -0.606  36.260  44.875  0.00  0.00     0.214 C 
ATOM     16  OSC ASG d 302       3.196  31.525  43.059  0.00  0.00    -0.572 OA
ATOM     17  O3  ASG d 302       2.522  35.032  45.580  0.00  0.00    -0.348 OA
ATOM     18  C4  ASG d 302       3.920  35.196  43.667  0.00  0.00     0.114 C 
ATOM     19  H   ASG d 302       6.492  36.234  40.133  0.00  0.00     0.209 HD
ATOM     20  H   ASG d 302       6.054  35.095  42.095  0.00  0.00     0.078 H 
ATOM     21  H   ASG d 302       4.781  34.889  40.904  0.00  0.00     0.078 H 
ATOM     22  H   ASG d 302       1.219  35.264  43.377  0.00  0.00     0.084 H 
ATOM     23  H   ASG d 302       2.434  37.983  42.999  0.00  0.00     0.132 H 
ATOM     24  H   ASG d 302       4.703  37.025  42.969  0.00  0.00     0.090 H 
ATOM     25  H   ASG d 302       3.296  36.800  44.959  0.00  0.00     0.091 H 
ATOM     26  H   ASG d 302      -2.408  36.613  45.939  0.00  0.00     0.040 H 
ATOM     27  H   ASG d 302      -1.697  38.046  45.235  0.00  0.00     0.040 H 
ATOM     28  H   ASG d 302      -0.992  37.332  46.666  0.00  0.00     0.040 H 
ATOM     29  H   ASG d 302       0.799  37.766  44.924  0.00  0.00     0.163 HD
ATOM     30  H   ASG d 302       4.793  34.939  44.231  0.00  0.00     0.093 H 
ATOM     31  C6  BDP d 303       6.097  36.305  48.365  0.00  0.00     0.206 C 
ATOM     32  O4  BDP d 303       4.341  35.649  50.670  0.00  0.00    -0.348 OA
ATOM     33  O3  BDP d 303       1.976  34.154  50.239  0.00  0.00    -0.390 OA
ATOM     34  C3  BDP d 303       2.509  35.070  49.268  0.00  0.00     0.092 C 
ATOM     35  O6B BDP d 303       6.757  35.248  48.410  0.00  0.00    -0.646 OA
ATOM     36  C4  BDP d 303       4.035  35.161  49.408  0.00  0.00     0.103 C 
ATOM     37  C2  BDP d 303       2.193  34.554  47.878  0.00  0.00     0.110 C 
ATOM     38  O6A BDP d 303       6.493  37.494  48.342  0.00  0.00    -0.646 OA
ATOM     39  C1  BDP d 303       2.776  35.513  46.852  0.00  0.00     0.160 C 
ATOM     40  C5  BDP d 303       4.579  36.142  48.335  0.00  0.00     0.152 C 
ATOM     41  O5  BDP d 303       4.212  35.655  47.015  0.00  0.00    -0.340 OA
ATOM     42  O2  BDP d 303       0.777  34.475  47.685  0.00  0.00    -0.388 OA
ATOM     43  H   BDP d 303       1.012  34.105  50.141  0.00  0.00     0.210 HD
ATOM     44  H   BDP d 303       2.073  36.034  49.427  0.00  0.00     0.091 H 
ATOM     45  H   BDP d 303       4.477  34.196  49.275  0.00  0.00     0.092 H 
ATOM     46  H   BDP d 303       2.617  33.578  47.763  0.00  0.00     0.094 H 
ATOM     47  H   BDP d 303       2.318  36.469  46.996  0.00  0.00     0.133 H 
ATOM     48  H   BDP d 303       4.146  37.096  48.554  0.00  0.00     0.104 H 
ATOM     49  H   BDP d 303       0.387  35.358  47.787  0.00  0.00     0.210 HD
ATOM     50  C1  ASG d 306      13.337  35.430  52.588  0.00  0.00     0.151 C 
ATOM     51  C4  ASG d 306      15.695  33.776  52.039  0.00  0.00     0.089 C 
ATOM     52  C6  ASG d 306      14.019  31.919  51.579  0.00  0.00     0.043 C 
ATOM     53  S   ASG d 306      17.172  32.421  53.658  0.00  0.00     0.252 S 
ATOM     54  O4  ASG d 306      15.880  33.298  53.372  0.00  0.00    -0.249 OA
ATOM     55  OSB ASG d 306      17.193  32.057  55.064  0.00  0.00    -0.572 OA
ATOM     56  OSA ASG d 306      17.121  31.217  52.848  0.00  0.00    -0.572 OA
ATOM     57  C3  ASG d 306      15.878  35.336  52.045  0.00  0.00    -0.014 C 
ATOM     58  C7  ASG d 306      14.615  38.053  54.307  0.00  0.00     0.214 C 
ATOM     59  N   ASG d 306      14.705  37.381  53.085  0.00  0.00    -0.352 N 
ATOM     60  C8  ASG d 306      14.625  39.553  54.146  0.00  0.00    -0.003 C 
ATOM     61  C2  ASG d 306      14.698  35.885  53.020  0.00  0.00     0.062 C 
ATOM     62  O5  ASG d 306      13.275  33.986  52.515  0.00  0.00    -0.349 OA
ATOM     63  O6  ASG d 306      12.660  31.618  51.267  0.00  0.00    -0.398 OA
ATOM     64  O7  ASG d 306      14.529  37.503  55.401  0.00  0.00    -0.274 OA
ATOM     65  OSC ASG d 306      18.359  33.178  53.329  0.00  0.00    -0.572 OA
ATOM     66  C5  ASG d 306      14.249  33.414  51.589  0.00  0.00     0.088 C 
ATOM     67  H   ASG d 306      13.126  35.814  51.612  0.00  0.00     0.132 H 
ATOM     68  H   ASG d 306      16.401  33.333  51.367  0.00  0.00     0.089 H 
ATOM     69  H   ASG d 306      14.254  31.521  52.545  0.00  0.00     0.078 H 
ATOM     70  H   ASG d 306      14.647  31.479  50.832  0.00  0.00     0.078 H 
ATOM     71  H   ASG d 306      15.768  35.733  51.058  0.00  0.00     0.040 H 
ATOM     72  H   ASG d 306      16.851  35.627  52.383  0.00  0.00     0.040 H 
ATOM     73  H   ASG d 306      14.773  37.900  52.252  0.00  0.00     0.163 HD
ATOM     74  H   ASG d 306      14.707  39.799  53.107  0.00  0.00     0.040 H 
ATOM     75  H   ASG d 306      15.458  39.963  54.677  0.00  0.00     0.040 H 
ATOM     76  H   ASG d 306      13.716  39.959  54.538  0.00  0.00     0.040 H 
ATOM     77  H   ASG d 306      14.902  35.476  53.988  0.00  0.00     0.080 H 
ATOM     78  H   ASG d 306      12.079  32.011  51.937  0.00  0.00     0.209 HD
ATOM     79  H   ASG d 306      14.131  33.808  50.600  0.00  0.00     0.090 H 
ATOM     80  C5  BDP d 305      10.253  37.000  53.452  0.00  0.00     0.152 C 
ATOM     81  O6B BDP d 305      10.033  37.220  51.125  0.00  0.00    -0.646 OA
ATOM     82  C6  BDP d 305      10.554  37.716  52.142  0.00  0.00     0.206 C 
ATOM     83  O4  BDP d 305      12.404  35.904  53.505  0.00  0.00    -0.348 OA
ATOM     84  O3  BDP d 305      11.405  33.826  55.167  0.00  0.00    -0.390 OA
ATOM     85  C2  BDP d 305       9.204  34.729  54.932  0.00  0.00     0.110 C 
ATOM     86  C1  BDP d 305       8.406  36.022  54.708  0.00  0.00     0.160 C 
ATOM     87  C4  BDP d 305      11.046  35.683  53.618  0.00  0.00     0.103 C 
ATOM     88  O6A BDP d 305      11.298  38.720  52.255  0.00  0.00    -0.646 OA
ATOM     89  C3  BDP d 305      10.686  35.046  54.974  0.00  0.00     0.092 C 
ATOM     90  O2  BDP d 305       8.768  34.135  56.158  0.00  0.00    -0.388 OA
ATOM     91  O5  BDP d 305       8.827  36.689  53.479  0.00  0.00    -0.340 OA
ATOM     92  H   BDP d 305      10.544  37.649  54.252  0.00  0.00     0.104 H 
ATOM     93  H   BDP d 305      11.165  33.441  56.024  0.00  0.00     0.210 HD
ATOM     94  H   BDP d 305       9.039  34.040  54.131  0.00  0.00     0.094 H 
ATOM     95  H   BDP d 305       8.591  36.670  55.539  0.00  0.00     0.133 H 
ATOM     96  H   BDP d 305      10.776  35.006  52.835  0.00  0.00     0.092 H 
ATOM     97  H   BDP d 305      10.935  35.715  55.770  0.00  0.00     0.091 H 
ATOM     98  H   BDP d 305       8.915  34.755  56.888  0.00  0.00     0.210 HD
ATOM     99  O6B BDP d 301      -0.226  40.708  42.423  0.00  0.00    -0.646 OA
ATOM    100  C6  BDP d 301      -0.767  39.588  42.288  0.00  0.00     0.206 C 
ATOM    101  O6A BDP d 301      -1.499  38.953  43.078  0.00  0.00    -0.646 OA
ATOM    102  O5  BDP d 301      -0.759  39.825  39.891  0.00  0.00    -0.340 OA
ATOM    103  C5  BDP d 301      -0.498  38.889  40.962  0.00  0.00     0.152 C 
ATOM    104  C3  BDP d 301       1.086  37.682  39.441  0.00  0.00     0.092 C 
ATOM    105  C1  BDP d 301      -0.547  39.251  38.565  0.00  0.00     0.156 C 
ATOM    106  O1  BDP d 301      -0.902  40.325  37.566  0.00  0.00    -0.368 OA
ATOM    107  C4  BDP d 301       0.916  38.322  40.842  0.00  0.00     0.103 C 
ATOM    108  C2  BDP d 301       0.856  38.749  38.381  0.00  0.00     0.110 C 
ATOM    109  O2  BDP d 301       0.974  38.209  37.067  0.00  0.00    -0.388 OA
ATOM    110  O4  BDP d 301       0.964  37.315  41.786  0.00  0.00    -0.348 OA
ATOM    111  O3  BDP d 301       2.411  37.165  39.299  0.00  0.00    -0.390 OA
ATOM    112  H   BDP d 301      -1.152  38.045  40.902  0.00  0.00     0.104 H 
ATOM    113  H   BDP d 301       0.382  36.885  39.328  0.00  0.00     0.091 H 
ATOM    114  H   BDP d 301      -1.166  38.389  38.426  0.00  0.00     0.133 H 
ATOM    115  H   BDP d 301      -0.333  41.098  37.706  0.00  0.00     0.212 HD
ATOM    116  H   BDP d 301       1.670  39.068  40.980  0.00  0.00     0.092 H 
ATOM    117  H   BDP d 301       1.584  39.525  38.489  0.00  0.00     0.094 H 
ATOM    118  H   BDP d 301       0.321  37.502  36.948  0.00  0.00     0.210 HD
ATOM    119  H   BDP d 301       3.052  37.886  39.403  0.00  0.00     0.210 HD
ATOM    120  OSC ASG d 304       3.536  33.995  56.916  0.00  0.00    -0.572 OA
ATOM    121  O3  ASG d 304       7.026  35.733  54.623  0.00  0.00    -0.348 OA
ATOM    122  C5  ASG d 304       5.461  32.881  52.719  0.00  0.00     0.090 C 
ATOM    123  C6  ASG d 304       4.724  31.608  53.059  0.00  0.00     0.043 C 
ATOM    124  O4  ASG d 304       4.735  34.009  54.744  0.00  0.00    -0.246 OA
ATOM    125  C7  ASG d 304       5.679  38.214  51.916  0.00  0.00     0.214 C 
ATOM    126  C8  ASG d 304       6.588  39.324  51.441  0.00  0.00    -0.003 C 
ATOM    127  S   ASG d 304       4.709  33.472  56.246  0.00  0.00     0.252 S 
ATOM    128  OSB ASG d 304       4.666  32.020  56.251  0.00  0.00    -0.572 OA
ATOM    129  N   ASG d 304       6.362  37.032  52.165  0.00  0.00    -0.349 N 
ATOM    130  C4  ASG d 304       5.898  33.680  53.969  0.00  0.00     0.114 C 
ATOM    131  C3  ASG d 304       6.613  34.966  53.504  0.00  0.00     0.094 C 
ATOM    132  C1  ASG d 304       5.234  34.934  51.453  0.00  0.00     0.154 C 
ATOM    133  O7  ASG d 304       4.476  38.355  52.058  0.00  0.00    -0.274 OA
ATOM    134  O6  ASG d 304       4.726  30.710  51.949  0.00  0.00    -0.398 OA
ATOM    135  O5  ASG d 304       4.589  33.698  51.881  0.00  0.00    -0.349 OA
ATOM    136  C2  ASG d 304       5.668  35.791  52.646  0.00  0.00     0.087 C 
ATOM    137  OSA ASG d 304       5.908  33.911  56.941  0.00  0.00    -0.572 OA
ATOM    138  H   ASG d 304       6.360  32.619  52.204  0.00  0.00     0.090 H 
ATOM    139  H   ASG d 304       3.714  31.845  53.317  0.00  0.00     0.078 H 
ATOM    140  H   ASG d 304       5.216  31.137  53.884  0.00  0.00     0.078 H 
ATOM    141  H   ASG d 304       7.596  38.966  51.395  0.00  0.00     0.040 H 
ATOM    142  H   ASG d 304       6.533  40.146  52.123  0.00  0.00     0.040 H 
ATOM    143  H   ASG d 304       6.280  39.647  50.468  0.00  0.00     0.040 H 
ATOM    144  H   ASG d 304       7.336  37.007  52.022  0.00  0.00     0.163 HD
ATOM    145  H   ASG d 304       6.566  33.102  54.573  0.00  0.00     0.093 H 
ATOM    146  H   ASG d 304       7.476  34.693  52.933  0.00  0.00     0.091 H 
ATOM    147  H   ASG d 304       6.113  34.683  50.896  0.00  0.00     0.132 H 
ATOM    148  H   ASG d 304       4.282  31.128  51.194  0.00  0.00     0.209 HD
ATOM    149  H   ASG d 304       4.813  36.086  53.218  0.00  0.00     0.084 H 
ENDROOT
TORSDOF 38
ENDMDL
MODEL 38
REMARK VINA RESULT:      -6.0      3.490      5.749
REMARK  0 active torsions:
REMARK  status: ('A' for Active; 'I' for Inactive)
REMARK       I    between atoms: C6_2  and  C5_74 
REMARK       I    between atoms: C1_3  and  O4_24 
REMARK       I    between atoms: O6_4  and  C6_26 
REMARK       I    between atoms: C5_5  and  C6_12 
REMARK       I    between atoms: C4_6  and  O4_22 
REMARK       I    between atoms: C6_8  and  C5_90 
REMARK       I    between atoms: C6_8  and  O6_83 
REMARK       I    between atoms: O3_11  and  C3_60 
REMARK       I    between atoms: O3_11  and  C1_29 
REMARK       I    between atoms: C5_13  and  C6_18 
REMARK       I    between atoms: O4_14  and  C4_88 
REMARK       I    between atoms: O4_14  and  S_15 
REMARK       I    between atoms: C6_16  and  C5_28 
REMARK       I    between atoms: S_17  and  O4_22 
REMARK       I    between atoms: C6_18  and  O6_66 
REMARK       I    between atoms: O4_20  and  C4_46 
REMARK       I    between atoms: O4_20  and  C1_61 
REMARK       I    between atoms: O4_21  and  C4_54 
REMARK       I    between atoms: O4_21  and  S_40 
REMARK       I    between atoms: O4_24  and  C4_35 
REMARK       I    between atoms: O3_25  and  C3_48 
REMARK       I    between atoms: C6_26  and  C5_50 
REMARK       I    between atoms: C2_27  and  O2_55 
REMARK       I    between atoms: O3_31  and  C3_37 
REMARK       I    between atoms: C2_32  and  N_72 
REMARK       I    between atoms: C7_33  and  C8_39 
REMARK       I    between atoms: C7_33  and  N_52 
REMARK       I    between atoms: C1_34  and  O4_86 
REMARK       I    between atoms: C3_36  and  O3_87 
REMARK       I    between atoms: C2_47  and  O2_85 
REMARK       I    between atoms: N_52  and  C2_71 
REMARK       I    between atoms: C3_53  and  O3_81 
REMARK       I    between atoms: C1_56  and  O3_81 
REMARK       I    between atoms: C7_57  and  C8_64 
REMARK       I    between atoms: C7_57  and  N_63 
REMARK       I    between atoms: C8_58  and  C7_73 
REMARK       I    between atoms: C1_59  and  O1_68 
REMARK       I    between atoms: N_63  and  C2_67 
REMARK       I    between atoms: C4_69  and  O4_86 
REMARK       I    between atoms: N_72  and  C7_73 
REMARK       I    between atoms: C2_77  and  O2_82 
ROOT
ATOM      1  OSB ASG d 302      14.978  41.014  49.800  0.00  0.00    -0.572 OA
ATOM      2  O6  ASG d 302      15.756  39.280  45.837  0.00  0.00    -0.398 OA
ATOM      3  O4  ASG d 302      16.454  39.036  50.104  0.00  0.00    -0.246 OA
ATOM      4  S   ASG d 302      15.464  40.084  50.801  0.00  0.00     0.252 S 
ATOM      5  C6  ASG d 302      15.723  39.364  47.259  0.00  0.00     0.043 C 
ATOM      6  C2  ASG d 302      18.003  36.705  49.732  0.00  0.00     0.087 C 
ATOM      7  C1  ASG d 302      18.321  36.924  48.260  0.00  0.00     0.154 C 
ATOM      8  O5  ASG d 302      17.696  38.122  47.746  0.00  0.00    -0.349 OA
ATOM      9  C5  ASG d 302      16.255  38.097  47.878  0.00  0.00     0.090 C 
ATOM     10  O7  ASG d 302      19.752  36.388  51.998  0.00  0.00    -0.274 OA
ATOM     11  C3  ASG d 302      16.494  36.622  49.870  0.00  0.00     0.094 C 
ATOM     12  C8  ASG d 302      19.987  34.027  51.631  0.00  0.00    -0.003 C 
ATOM     13  OSA ASG d 302      14.342  39.389  51.405  0.00  0.00    -0.572 OA
ATOM     14  N   ASG d 302      18.636  35.439  50.206  0.00  0.00    -0.349 N 
ATOM     15  C7  ASG d 302      19.466  35.411  51.324  0.00  0.00     0.214 C 
ATOM     16  OSC ASG d 302      16.185  40.811  51.820  0.00  0.00    -0.572 OA
ATOM     17  O3  ASG d 302      16.205  36.483  51.214  0.00  0.00    -0.348 OA
ATOM     18  C4  ASG d 302      15.881  37.939  49.366  0.00  0.00     0.114 C 
ATOM     19  H   ASG d 302      15.411  40.102  45.457  0.00  0.00     0.209 HD
ATOM     20  H   ASG d 302      14.713  39.514  47.579  0.00  0.00     0.078 H 
ATOM     21  H   ASG d 302      16.335  40.184  47.571  0.00  0.00     0.078 H 
ATOM     22  H   ASG d 302      18.387  37.510  50.324  0.00  0.00     0.084 H 
ATOM     23  H   ASG d 302      17.944  36.079  47.723  0.00  0.00     0.132 H 
ATOM     24  H   ASG d 302      15.815  37.266  47.369  0.00  0.00     0.090 H 
ATOM     25  H   ASG d 302      16.103  35.800  49.308  0.00  0.00     0.091 H 
ATOM     26  H   ASG d 302      20.616  34.066  52.496  0.00  0.00     0.040 H 
ATOM     27  H   ASG d 302      20.551  33.664  50.796  0.00  0.00     0.040 H 
ATOM     28  H   ASG d 302      19.165  33.369  51.819  0.00  0.00     0.040 H 
ATOM     29  H   ASG d 302      18.463  34.602  49.717  0.00  0.00     0.163 HD
ATOM     30  H   ASG d 302      14.818  37.932  49.493  0.00  0.00     0.093 H 
ATOM     31  C6  BDP d 303      12.019  34.476  50.434  0.00  0.00     0.206 C 
ATOM     32  O4  BDP d 303      12.398  33.034  53.004  0.00  0.00    -0.348 OA
ATOM     33  O3  BDP d 303      14.417  33.886  54.796  0.00  0.00    -0.390 OA
ATOM     34  C3  BDP d 303      14.543  33.993  53.369  0.00  0.00     0.092 C 
ATOM     35  O6B BDP d 303      11.247  35.341  50.893  0.00  0.00    -0.646 OA
ATOM     36  C4  BDP d 303      13.159  34.159  52.725  0.00  0.00     0.103 C 
ATOM     37  C2  BDP d 303      15.368  35.221  53.037  0.00  0.00     0.110 C 
ATOM     38  O6A BDP d 303      11.880  33.727  49.440  0.00  0.00    -0.646 OA
ATOM     39  C1  BDP d 303      15.483  35.345  51.527  0.00  0.00     0.160 C 
ATOM     40  C5  BDP d 303      13.334  34.290  51.188  0.00  0.00     0.152 C 
ATOM     41  O5  BDP d 303      14.176  35.441  50.901  0.00  0.00    -0.340 OA
ATOM     42  O2  BDP d 303      16.681  35.105  53.593  0.00  0.00    -0.388 OA
ATOM     43  H   BDP d 303      15.297  33.781  55.191  0.00  0.00     0.210 HD
ATOM     44  H   BDP d 303      15.012  33.106  52.996  0.00  0.00     0.091 H 
ATOM     45  H   BDP d 303      12.674  35.031  53.111  0.00  0.00     0.092 H 
ATOM     46  H   BDP d 303      14.889  36.085  53.449  0.00  0.00     0.094 H 
ATOM     47  H   BDP d 303      15.976  34.469  51.160  0.00  0.00     0.133 H 
ATOM     48  H   BDP d 303      13.771  33.371  50.857  0.00  0.00     0.104 H 
ATOM     49  H   BDP d 303      17.122  34.324  53.223  0.00  0.00     0.210 HD
ATOM     50  C1  ASG d 306       3.617  33.824  50.369  0.00  0.00     0.151 C 
ATOM     51  C4  ASG d 306       1.532  35.872  50.145  0.00  0.00     0.089 C 
ATOM     52  C6  ASG d 306       2.902  37.149  51.866  0.00  0.00     0.043 C 
ATOM     53  S   ASG d 306      -0.721  36.074  51.379  0.00  0.00     0.252 S 
ATOM     54  O4  ASG d 306       0.684  35.363  51.175  0.00  0.00    -0.249 OA
ATOM     55  OSB ASG d 306      -1.440  35.400  52.445  0.00  0.00    -0.572 OA
ATOM     56  OSA ASG d 306      -0.506  37.463  51.742  0.00  0.00    -0.572 OA
ATOM     57  C3  ASG d 306       1.626  34.793  49.007  0.00  0.00    -0.014 C 
ATOM     58  C7  ASG d 306       2.150  31.076  49.042  0.00  0.00     0.214 C 
ATOM     59  N   ASG d 306       2.517  32.389  48.740  0.00  0.00    -0.352 N 
ATOM     60  C8  ASG d 306       2.462  30.115  47.922  0.00  0.00    -0.003 C 
ATOM     61  C2  ASG d 306       2.306  33.499  49.722  0.00  0.00     0.062 C 
ATOM     62  O5  ASG d 306       3.468  34.890  51.336  0.00  0.00    -0.349 OA
ATOM     63  O6  ASG d 306       4.184  37.283  52.478  0.00  0.00    -0.398 OA
ATOM     64  O7  ASG d 306       1.636  30.721  50.099  0.00  0.00    -0.274 OA
ATOM     65  OSC ASG d 306      -1.485  36.005  50.153  0.00  0.00    -0.572 OA
ATOM     66  C5  ASG d 306       2.943  36.124  50.755  0.00  0.00     0.088 C 
ATOM     67  H   ASG d 306       4.310  34.156  49.625  0.00  0.00     0.132 H 
ATOM     68  H   ASG d 306       1.148  36.787  49.742  0.00  0.00     0.089 H 
ATOM     69  H   ASG d 306       2.191  36.839  52.604  0.00  0.00     0.078 H 
ATOM     70  H   ASG d 306       2.620  38.094  51.452  0.00  0.00     0.078 H 
ATOM     71  H   ASG d 306       2.238  35.145  48.203  0.00  0.00     0.040 H 
ATOM     72  H   ASG d 306       0.670  34.567  48.585  0.00  0.00     0.040 H 
ATOM     73  H   ASG d 306       2.922  32.589  47.865  0.00  0.00     0.163 HD
ATOM     74  H   ASG d 306       2.903  30.649  47.107  0.00  0.00     0.040 H 
ATOM     75  H   ASG d 306       1.558  29.644  47.594  0.00  0.00     0.040 H 
ATOM     76  H   ASG d 306       3.145  29.369  48.272  0.00  0.00     0.040 H 
ATOM     77  H   ASG d 306       1.619  33.190  50.483  0.00  0.00     0.080 H 
ATOM     78  H   ASG d 306       4.451  36.431  52.859  0.00  0.00     0.209 HD
ATOM     79  H   ASG d 306       3.561  36.477  49.955  0.00  0.00     0.090 H 
ATOM     80  C5  BDP d 305       6.181  31.470  51.152  0.00  0.00     0.152 C 
ATOM     81  O6B BDP d 305       7.470  32.819  49.726  0.00  0.00    -0.646 OA
ATOM     82  C6  BDP d 305       6.633  31.897  49.762  0.00  0.00     0.206 C 
ATOM     83  O4  BDP d 305       4.095  32.675  50.993  0.00  0.00    -0.348 OA
ATOM     84  O3  BDP d 305       3.869  32.838  53.822  0.00  0.00    -0.390 OA
ATOM     85  C2  BDP d 305       6.051  31.882  54.027  0.00  0.00     0.110 C 
ATOM     86  C1  BDP d 305       7.064  30.938  53.362  0.00  0.00     0.160 C 
ATOM     87  C4  BDP d 305       5.195  32.469  51.801  0.00  0.00     0.103 C 
ATOM     88  O6A BDP d 305       6.096  31.263  48.821  0.00  0.00    -0.646 OA
ATOM     89  C3  BDP d 305       4.787  31.943  53.191  0.00  0.00     0.092 C 
ATOM     90  O2  BDP d 305       5.776  31.396  55.344  0.00  0.00    -0.388 OA
ATOM     91  O5  BDP d 305       7.366  31.371  52.001  0.00  0.00    -0.340 OA
ATOM     92  H   BDP d 305       5.669  30.535  51.056  0.00  0.00     0.104 H 
ATOM     93  H   BDP d 305       3.626  32.490  54.694  0.00  0.00     0.210 HD
ATOM     94  H   BDP d 305       6.446  32.873  54.095  0.00  0.00     0.094 H 
ATOM     95  H   BDP d 305       6.631  29.961  53.330  0.00  0.00     0.133 H 
ATOM     96  H   BDP d 305       5.676  33.417  51.918  0.00  0.00     0.092 H 
ATOM     97  H   BDP d 305       4.317  30.987  53.097  0.00  0.00     0.091 H 
ATOM     98  H   BDP d 305       5.417  30.497  55.289  0.00  0.00     0.210 HD
ATOM     99  O6B BDP d 301      20.983  33.952  46.686  0.00  0.00    -0.646 OA
ATOM    100  C6  BDP d 301      21.333  34.726  47.604  0.00  0.00     0.206 C 
ATOM    101  O6A BDP d 301      21.510  34.497  48.821  0.00  0.00    -0.646 OA
ATOM    102  O5  BDP d 301      22.457  36.158  46.026  0.00  0.00    -0.340 OA
ATOM    103  C5  BDP d 301      21.587  36.167  47.181  0.00  0.00     0.152 C 
ATOM    104  C3  BDP d 301      20.694  38.380  46.416  0.00  0.00     0.092 C 
ATOM    105  C1  BDP d 301      22.781  37.497  45.542  0.00  0.00     0.156 C 
ATOM    106  O1  BDP d 301      23.724  37.321  44.377  0.00  0.00    -0.368 OA
ATOM    107  C4  BDP d 301      20.311  36.952  46.881  0.00  0.00     0.103 C 
ATOM    108  C2  BDP d 301      21.555  38.276  45.166  0.00  0.00     0.110 C 
ATOM    109  O2  BDP d 301      21.960  39.563  44.706  0.00  0.00    -0.388 OA
ATOM    110  O4  BDP d 301      19.672  37.053  48.102  0.00  0.00    -0.348 OA
ATOM    111  O3  BDP d 301      19.515  39.126  46.107  0.00  0.00    -0.390 OA
ATOM    112  H   BDP d 301      22.047  36.671  48.005  0.00  0.00     0.104 H 
ATOM    113  H   BDP d 301      21.231  38.875  47.198  0.00  0.00     0.091 H 
ATOM    114  H   BDP d 301      23.243  38.074  46.316  0.00  0.00     0.133 H 
ATOM    115  H   BDP d 301      23.289  36.797  43.686  0.00  0.00     0.212 HD
ATOM    116  H   BDP d 301      19.711  36.488  46.126  0.00  0.00     0.092 H 
ATOM    117  H   BDP d 301      20.996  37.805  44.384  0.00  0.00     0.094 H 
ATOM    118  H   BDP d 301      22.469  40.009  45.401  0.00  0.00     0.210 HD
ATOM    119  H   BDP d 301      19.026  38.678  45.399  0.00  0.00     0.210 HD
ATOM    120  OSC ASG d 304       9.985  29.877  58.163  0.00  0.00    -0.572 OA
ATOM    121  O3  ASG d 304       8.262  30.908  54.109  0.00  0.00    -0.348 OA
ATOM    122  C5  ASG d 304      10.029  33.882  55.609  0.00  0.00     0.090 C 
ATOM    123  C6  ASG d 304      10.308  34.407  56.996  0.00  0.00     0.043 C 
ATOM    124  O4  ASG d 304       9.928  31.571  56.350  0.00  0.00    -0.246 OA
ATOM    125  C7  ASG d 304      11.083  30.656  51.411  0.00  0.00     0.214 C 
ATOM    126  C8  ASG d 304      10.687  30.373  49.980  0.00  0.00    -0.003 C 
ATOM    127  S   ASG d 304       9.177  30.948  57.613  0.00  0.00     0.252 S 
ATOM    128  OSB ASG d 304       8.974  31.971  58.623  0.00  0.00    -0.572 OA
ATOM    129  N   ASG d 304      10.177  31.479  52.065  0.00  0.00    -0.349 N 
ATOM    130  C4  ASG d 304       9.209  32.571  55.611  0.00  0.00     0.114 C 
ATOM    131  C3  ASG d 304       9.007  32.115  54.151  0.00  0.00     0.094 C 
ATOM    132  C1  ASG d 304      11.142  33.212  53.564  0.00  0.00     0.154 C 
ATOM    133  O7  ASG d 304      12.094  30.204  51.922  0.00  0.00    -0.274 OA
ATOM    134  O6  ASG d 304      10.664  35.790  56.951  0.00  0.00    -0.398 OA
ATOM    135  O5  ASG d 304      11.307  33.672  54.938  0.00  0.00    -0.349 OA
ATOM    136  C2  ASG d 304      10.361  31.896  53.496  0.00  0.00     0.087 C 
ATOM    137  OSA ASG d 304       7.884  30.425  57.202  0.00  0.00    -0.572 OA
ATOM    138  H   ASG d 304       9.433  34.604  55.091  0.00  0.00     0.090 H 
ATOM    139  H   ASG d 304      11.114  33.851  57.426  0.00  0.00     0.078 H 
ATOM    140  H   ASG d 304       9.425  34.298  57.589  0.00  0.00     0.078 H 
ATOM    141  H   ASG d 304       9.767  30.874  49.758  0.00  0.00     0.040 H 
ATOM    142  H   ASG d 304      10.560  29.319  49.847  0.00  0.00     0.040 H 
ATOM    143  H   ASG d 304      11.453  30.726  49.321  0.00  0.00     0.040 H 
ATOM    144  H   ASG d 304       9.386  31.799  51.574  0.00  0.00     0.163 HD
ATOM    145  H   ASG d 304       8.254  32.723  56.070  0.00  0.00     0.093 H 
ATOM    146  H   ASG d 304       8.467  32.874  53.624  0.00  0.00     0.091 H 
ATOM    147  H   ASG d 304      10.586  33.949  53.023  0.00  0.00     0.132 H 
ATOM    148  H   ASG d 304      11.466  35.900  56.414  0.00  0.00     0.209 HD
ATOM    149  H   ASG d 304      10.897  31.123  54.004  0.00  0.00     0.084 H 
ENDROOT
TORSDOF 38
ENDMDL
MODEL 39
REMARK VINA RESULT:      -5.9      3.885     15.536
REMARK  0 active torsions:
REMARK  status: ('A' for Active; 'I' for Inactive)
REMARK       I    between atoms: C6_2  and  C5_74 
REMARK       I    between atoms: C1_3  and  O4_24 
REMARK       I    between atoms: O6_4  and  C6_26 
REMARK       I    between atoms: C5_5  and  C6_12 
REMARK       I    between atoms: C4_6  and  O4_22 
REMARK       I    between atoms: C6_8  and  C5_90 
REMARK       I    between atoms: C6_8  and  O6_83 
REMARK       I    between atoms: O3_11  and  C3_60 
REMARK       I    between atoms: O3_11  and  C1_29 
REMARK       I    between atoms: C5_13  and  C6_18 
REMARK       I    between atoms: O4_14  and  C4_88 
REMARK       I    between atoms: O4_14  and  S_15 
REMARK       I    between atoms: C6_16  and  C5_28 
REMARK       I    between atoms: S_17  and  O4_22 
REMARK       I    between atoms: C6_18  and  O6_66 
REMARK       I    between atoms: O4_20  and  C4_46 
REMARK       I    between atoms: O4_20  and  C1_61 
REMARK       I    between atoms: O4_21  and  C4_54 
REMARK       I    between atoms: O4_21  and  S_40 
REMARK       I    between atoms: O4_24  and  C4_35 
REMARK       I    between atoms: O3_25  and  C3_48 
REMARK       I    between atoms: C6_26  and  C5_50 
REMARK       I    between atoms: C2_27  and  O2_55 
REMARK       I    between atoms: O3_31  and  C3_37 
REMARK       I    between atoms: C2_32  and  N_72 
REMARK       I    between atoms: C7_33  and  C8_39 
REMARK       I    between atoms: C7_33  and  N_52 
REMARK       I    between atoms: C1_34  and  O4_86 
REMARK       I    between atoms: C3_36  and  O3_87 
REMARK       I    between atoms: C2_47  and  O2_85 
REMARK       I    between atoms: N_52  and  C2_71 
REMARK       I    between atoms: C3_53  and  O3_81 
REMARK       I    between atoms: C1_56  and  O3_81 
REMARK       I    between atoms: C7_57  and  C8_64 
REMARK       I    between atoms: C7_57  and  N_63 
REMARK       I    between atoms: C8_58  and  C7_73 
REMARK       I    between atoms: C1_59  and  O1_68 
REMARK       I    between atoms: N_63  and  C2_67 
REMARK       I    between atoms: C4_69  and  O4_86 
REMARK       I    between atoms: N_72  and  C7_73 
REMARK       I    between atoms: C2_77  and  O2_82 
ROOT
ATOM      1  OSB ASG d 302       3.650  34.944  50.398  0.00  0.00    -0.572 OA
ATOM      2  O6  ASG d 302       2.917  39.271  50.623  0.00  0.00    -0.398 OA
ATOM      3  O4  ASG d 302       4.240  35.703  52.691  0.00  0.00    -0.246 OA
ATOM      4  S   ASG d 302       4.373  34.547  51.591  0.00  0.00     0.252 S 
ATOM      5  C6  ASG d 302       3.406  37.991  51.016  0.00  0.00     0.043 C 
ATOM      6  C2  ASG d 302       4.781  37.227  55.005  0.00  0.00     0.087 C 
ATOM      7  C1  ASG d 302       3.889  38.412  54.663  0.00  0.00     0.154 C 
ATOM      8  O5  ASG d 302       3.245  38.248  53.378  0.00  0.00    -0.349 OA
ATOM      9  C5  ASG d 302       4.193  38.095  52.297  0.00  0.00     0.090 C 
ATOM     10  O7  ASG d 302       4.770  35.474  57.288  0.00  0.00    -0.274 OA
ATOM     11  C3  ASG d 302       5.815  37.096  53.901  0.00  0.00     0.094 C 
ATOM     12  C8  ASG d 302       6.139  36.962  58.583  0.00  0.00    -0.003 C 
ATOM     13  OSA ASG d 302       5.769  34.324  51.263  0.00  0.00    -0.572 OA
ATOM     14  N   ASG d 302       5.453  37.460  56.318  0.00  0.00    -0.349 N 
ATOM     15  C7  ASG d 302       5.378  36.530  57.351  0.00  0.00     0.214 C 
ATOM     16  OSC ASG d 302       3.800  33.328  52.114  0.00  0.00    -0.572 OA
ATOM     17  O3  ASG d 302       6.586  35.984  54.183  0.00  0.00    -0.348 OA
ATOM     18  C4  ASG d 302       5.084  36.865  52.568  0.00  0.00     0.114 C 
ATOM     19  H   ASG d 302       2.414  39.186  49.799  0.00  0.00     0.209 HD
ATOM     20  H   ASG d 302       4.038  37.604  50.245  0.00  0.00     0.078 H 
ATOM     21  H   ASG d 302       2.573  37.338  51.175  0.00  0.00     0.078 H 
ATOM     22  H   ASG d 302       4.204  36.330  55.082  0.00  0.00     0.084 H 
ATOM     23  H   ASG d 302       4.510  39.281  54.629  0.00  0.00     0.132 H 
ATOM     24  H   ASG d 302       4.855  38.931  52.216  0.00  0.00     0.090 H 
ATOM     25  H   ASG d 302       6.421  37.976  53.837  0.00  0.00     0.091 H 
ATOM     26  H   ASG d 302       6.047  36.213  59.340  0.00  0.00     0.040 H 
ATOM     27  H   ASG d 302       5.738  37.887  58.944  0.00  0.00     0.040 H 
ATOM     28  H   ASG d 302       7.172  37.094  58.336  0.00  0.00     0.040 H 
ATOM     29  H   ASG d 302       5.962  38.291  56.456  0.00  0.00     0.163 HD
ATOM     30  H   ASG d 302       5.787  36.720  51.774  0.00  0.00     0.093 H 
ATOM     31  C6  BDP d 303      10.263  37.504  51.667  0.00  0.00     0.206 C 
ATOM     32  O4  BDP d 303      11.990  35.991  53.553  0.00  0.00    -0.348 OA
ATOM     33  O3  BDP d 303      10.822  34.083  55.289  0.00  0.00    -0.390 OA
ATOM     34  C3  BDP d 303      10.141  35.277  54.868  0.00  0.00     0.092 C 
ATOM     35  O6B BDP d 303      10.302  36.652  50.757  0.00  0.00    -0.646 OA
ATOM     36  C4  BDP d 303      10.634  35.707  53.479  0.00  0.00     0.103 C 
ATOM     37  C2  BDP d 303       8.655  34.990  54.772  0.00  0.00     0.110 C 
ATOM     38  O6A BDP d 303      10.504  38.732  51.623  0.00  0.00    -0.646 OA
ATOM     39  C1  BDP d 303       7.939  36.247  54.307  0.00  0.00     0.160 C 
ATOM     40  C5  BDP d 303       9.867  36.986  53.048  0.00  0.00     0.152 C 
ATOM     41  O5  BDP d 303       8.441  36.699  53.021  0.00  0.00    -0.340 OA
ATOM     42  O2  BDP d 303       8.137  34.609  56.050  0.00  0.00    -0.388 OA
ATOM     43  H   BDP d 303      10.502  33.822  56.166  0.00  0.00     0.210 HD
ATOM     44  H   BDP d 303      10.335  36.054  55.577  0.00  0.00     0.091 H 
ATOM     45  H   BDP d 303      10.466  34.925  52.768  0.00  0.00     0.092 H 
ATOM     46  H   BDP d 303       8.498  34.190  54.078  0.00  0.00     0.094 H 
ATOM     47  H   BDP d 303       8.113  37.014  55.032  0.00  0.00     0.133 H 
ATOM     48  H   BDP d 303      10.118  37.741  53.763  0.00  0.00     0.104 H 
ATOM     49  H   BDP d 303       8.276  35.331  56.684  0.00  0.00     0.210 HD
ATOM     50  C1  ASG d 306      15.841  37.587  45.351  0.00  0.00     0.151 C 
ATOM     51  C4  ASG d 306      15.605  36.702  42.566  0.00  0.00     0.089 C 
ATOM     52  C6  ASG d 306      14.512  34.624  43.545  0.00  0.00     0.043 C 
ATOM     53  S   ASG d 306      17.301  35.451  41.084  0.00  0.00     0.252 S 
ATOM     54  O4  ASG d 306      16.861  36.026  42.496  0.00  0.00    -0.249 OA
ATOM     55  OSB ASG d 306      18.607  34.829  41.214  0.00  0.00    -0.572 OA
ATOM     56  OSA ASG d 306      16.334  34.458  40.650  0.00  0.00    -0.572 OA
ATOM     57  C3  ASG d 306      15.880  38.225  42.830  0.00  0.00    -0.014 C 
ATOM     58  C7  ASG d 306      18.168  40.042  45.188  0.00  0.00     0.214 C 
ATOM     59  N   ASG d 306      16.914  39.672  44.697  0.00  0.00    -0.352 N 
ATOM     60  C8  ASG d 306      18.234  41.500  45.569  0.00  0.00    -0.003 C 
ATOM     61  C2  ASG d 306      16.631  38.264  44.273  0.00  0.00     0.062 C 
ATOM     62  O5  ASG d 306      15.546  36.217  44.993  0.00  0.00    -0.349 OA
ATOM     63  O6  ASG d 306      13.860  34.071  44.686  0.00  0.00    -0.398 OA
ATOM     64  O7  ASG d 306      19.122  39.279  45.311  0.00  0.00    -0.274 OA
ATOM     65  OSC ASG d 306      17.363  36.524  40.117  0.00  0.00    -0.572 OA
ATOM     66  C5  ASG d 306      14.791  36.097  43.748  0.00  0.00     0.088 C 
ATOM     67  H   ASG d 306      14.910  38.096  45.483  0.00  0.00     0.132 H 
ATOM     68  H   ASG d 306      15.053  36.589  41.656  0.00  0.00     0.089 H 
ATOM     69  H   ASG d 306      15.437  34.110  43.385  0.00  0.00     0.078 H 
ATOM     70  H   ASG d 306      13.871  34.510  42.695  0.00  0.00     0.078 H 
ATOM     71  H   ASG d 306      14.962  38.774  42.869  0.00  0.00     0.040 H 
ATOM     72  H   ASG d 306      16.468  38.671  42.055  0.00  0.00     0.040 H 
ATOM     73  H   ASG d 306      16.202  40.349  44.628  0.00  0.00     0.163 HD
ATOM     74  H   ASG d 306      17.288  41.962  45.375  0.00  0.00     0.040 H 
ATOM     75  H   ASG d 306      18.994  41.986  44.994  0.00  0.00     0.040 H 
ATOM     76  H   ASG d 306      18.465  41.586  46.611  0.00  0.00     0.040 H 
ATOM     77  H   ASG d 306      17.550  37.731  44.139  0.00  0.00     0.080 H 
ATOM     78  H   ASG d 306      14.431  34.168  45.464  0.00  0.00     0.209 HD
ATOM     79  H   ASG d 306      13.870  36.640  43.792  0.00  0.00     0.090 H 
ATOM     80  C5  BDP d 305      16.204  38.153  48.854  0.00  0.00     0.152 C 
ATOM     81  O6B BDP d 305      13.945  38.776  48.706  0.00  0.00    -0.646 OA
ATOM     82  C6  BDP d 305      15.115  39.168  48.536  0.00  0.00     0.206 C 
ATOM     83  O4  BDP d 305      16.582  37.626  46.528  0.00  0.00    -0.348 OA
ATOM     84  O3  BDP d 305      17.653  35.077  47.187  0.00  0.00    -0.390 OA
ATOM     85  C2  BDP d 305      17.061  35.446  49.473  0.00  0.00     0.110 C 
ATOM     86  C1  BDP d 305      16.853  36.523  50.548  0.00  0.00     0.160 C 
ATOM     87  C4  BDP d 305      16.351  37.063  47.768  0.00  0.00     0.103 C 
ATOM     88  O6A BDP d 305      15.538  40.280  48.136  0.00  0.00    -0.646 OA
ATOM     89  C3  BDP d 305      17.483  36.098  48.171  0.00  0.00     0.092 C 
ATOM     90  O2  BDP d 305      18.056  34.529  49.938  0.00  0.00    -0.388 OA
ATOM     91  O5  BDP d 305      15.862  37.505  50.117  0.00  0.00    -0.340 OA
ATOM     92  H   BDP d 305      17.135  38.679  48.905  0.00  0.00     0.104 H 
ATOM     93  H   BDP d 305      18.369  34.481  47.459  0.00  0.00     0.210 HD
ATOM     94  H   BDP d 305      16.152  34.912  49.293  0.00  0.00     0.094 H 
ATOM     95  H   BDP d 305      17.789  37.017  50.703  0.00  0.00     0.133 H 
ATOM     96  H   BDP d 305      15.438  36.512  47.692  0.00  0.00     0.092 H 
ATOM     97  H   BDP d 305      18.403  36.634  48.267  0.00  0.00     0.091 H 
ATOM     98  H   BDP d 305      18.884  35.007  50.104  0.00  0.00     0.210 HD
ATOM     99  O6B BDP d 301       3.751  41.336  57.798  0.00  0.00    -0.646 OA
ATOM    100  C6  BDP d 301       3.336  40.169  57.970  0.00  0.00     0.206 C 
ATOM    101  O6A BDP d 301       3.838  39.229  58.625  0.00  0.00    -0.646 OA
ATOM    102  O5  BDP d 301       1.063  40.876  57.599  0.00  0.00    -0.340 OA
ATOM    103  C5  BDP d 301       2.017  39.837  57.284  0.00  0.00     0.152 C 
ATOM    104  C3  BDP d 301       0.735  39.383  55.179  0.00  0.00     0.092 C 
ATOM    105  C1  BDP d 301      -0.250  40.650  57.001  0.00  0.00     0.156 C 
ATOM    106  O1  BDP d 301      -1.136  41.783  57.458  0.00  0.00    -0.368 OA
ATOM    107  C4  BDP d 301       2.139  39.667  55.770  0.00  0.00     0.103 C 
ATOM    108  C2  BDP d 301      -0.182  40.552  55.505  0.00  0.00     0.110 C 
ATOM    109  O2  BDP d 301      -1.500  40.332  55.006  0.00  0.00    -0.388 OA
ATOM    110  O4  BDP d 301       2.912  38.533  55.611  0.00  0.00    -0.348 OA
ATOM    111  O3  BDP d 301       0.823  39.244  53.759  0.00  0.00    -0.390 OA
ATOM    112  H   BDP d 301       1.689  38.889  57.653  0.00  0.00     0.104 H 
ATOM    113  H   BDP d 301       0.350  38.478  55.600  0.00  0.00     0.091 H 
ATOM    114  H   BDP d 301      -0.649  39.710  57.318  0.00  0.00     0.133 H 
ATOM    115  H   BDP d 301      -0.760  42.627  57.162  0.00  0.00     0.212 HD
ATOM    116  H   BDP d 301       2.551  40.531  55.292  0.00  0.00     0.092 H 
ATOM    117  H   BDP d 301       0.199  41.444  55.054  0.00  0.00     0.094 H 
ATOM    118  H   BDP d 301      -1.865  39.526  55.403  0.00  0.00     0.210 HD
ATOM    119  H   BDP d 301       1.173  40.063  53.375  0.00  0.00     0.210 HD
ATOM    120  OSC ASG d 304      17.582  32.971  54.969  0.00  0.00    -0.572 OA
ATOM    121  O3  ASG d 304      16.417  35.930  51.753  0.00  0.00    -0.348 OA
ATOM    122  C5  ASG d 304      13.813  33.225  52.090  0.00  0.00     0.090 C 
ATOM    123  C6  ASG d 304      13.789  31.770  52.489  0.00  0.00     0.043 C 
ATOM    124  O4  ASG d 304      15.763  33.713  53.453  0.00  0.00    -0.246 OA
ATOM    125  C7  ASG d 304      13.866  38.500  53.232  0.00  0.00     0.214 C 
ATOM    126  C8  ASG d 304      13.777  39.870  52.600  0.00  0.00    -0.003 C 
ATOM    127  S   ASG d 304      17.126  32.895  53.596  0.00  0.00     0.252 S 
ATOM    128  OSB ASG d 304      16.910  31.506  53.232  0.00  0.00    -0.572 OA
ATOM    129  N   ASG d 304      14.089  37.495  52.302  0.00  0.00    -0.349 N 
ATOM    130  C4  ASG d 304      15.232  33.839  52.125  0.00  0.00     0.114 C 
ATOM    131  C3  ASG d 304      15.134  35.326  51.727  0.00  0.00     0.094 C 
ATOM    132  C1  ASG d 304      12.842  35.372  52.651  0.00  0.00     0.154 C 
ATOM    133  O7  ASG d 304      13.751  38.313  54.432  0.00  0.00    -0.274 OA
ATOM    134  O6  ASG d 304      12.588  31.141  52.037  0.00  0.00    -0.398 OA
ATOM    135  O5  ASG d 304      12.928  33.956  52.990  0.00  0.00    -0.349 OA
ATOM    136  C2  ASG d 304      14.214  36.051  52.696  0.00  0.00     0.087 C 
ATOM    137  OSA ASG d 304      18.131  33.464  52.713  0.00  0.00    -0.572 OA
ATOM    138  H   ASG d 304      13.482  33.299  51.076  0.00  0.00     0.090 H 
ATOM    139  H   ASG d 304      13.842  31.697  53.555  0.00  0.00     0.078 H 
ATOM    140  H   ASG d 304      14.625  31.276  52.041  0.00  0.00     0.078 H 
ATOM    141  H   ASG d 304      13.908  39.785  51.542  0.00  0.00     0.040 H 
ATOM    142  H   ASG d 304      14.541  40.500  53.005  0.00  0.00     0.040 H 
ATOM    143  H   ASG d 304      12.817  40.297  52.808  0.00  0.00     0.040 H 
ATOM    144  H   ASG d 304      14.168  37.737  51.351  0.00  0.00     0.163 HD
ATOM    145  H   ASG d 304      15.880  33.331  51.441  0.00  0.00     0.093 H 
ATOM    146  H   ASG d 304      14.739  35.392  50.735  0.00  0.00     0.091 H 
ATOM    147  H   ASG d 304      12.468  35.460  51.652  0.00  0.00     0.132 H 
ATOM    148  H   ASG d 304      11.822  31.581  52.438  0.00  0.00     0.209 HD
ATOM    149  H   ASG d 304      14.614  36.008  53.687  0.00  0.00     0.084 H 
ENDROOT
TORSDOF 38
ENDMDL
MODEL 40
REMARK VINA RESULT:      -5.9      6.258     11.325
REMARK  0 active torsions:
REMARK  status: ('A' for Active; 'I' for Inactive)
REMARK       I    between atoms: C6_2  and  C5_74 
REMARK       I    between atoms: C1_3  and  O4_24 
REMARK       I    between atoms: O6_4  and  C6_26 
REMARK       I    between atoms: C5_5  and  C6_12 
REMARK       I    between atoms: C4_6  and  O4_22 
REMARK       I    between atoms: C6_8  and  C5_90 
REMARK       I    between atoms: C6_8  and  O6_83 
REMARK       I    between atoms: O3_11  and  C3_60 
REMARK       I    between atoms: O3_11  and  C1_29 
REMARK       I    between atoms: C5_13  and  C6_18 
REMARK       I    between atoms: O4_14  and  C4_88 
REMARK       I    between atoms: O4_14  and  S_15 
REMARK       I    between atoms: C6_16  and  C5_28 
REMARK       I    between atoms: S_17  and  O4_22 
REMARK       I    between atoms: C6_18  and  O6_66 
REMARK       I    between atoms: O4_20  and  C4_46 
REMARK       I    between atoms: O4_20  and  C1_61 
REMARK       I    between atoms: O4_21  and  C4_54 
REMARK       I    between atoms: O4_21  and  S_40 
REMARK       I    between atoms: O4_24  and  C4_35 
REMARK       I    between atoms: O3_25  and  C3_48 
REMARK       I    between atoms: C6_26  and  C5_50 
REMARK       I    between atoms: C2_27  and  O2_55 
REMARK       I    between atoms: O3_31  and  C3_37 
REMARK       I    between atoms: C2_32  and  N_72 
REMARK       I    between atoms: C7_33  and  C8_39 
REMARK       I    between atoms: C7_33  and  N_52 
REMARK       I    between atoms: C1_34  and  O4_86 
REMARK       I    between atoms: C3_36  and  O3_87 
REMARK       I    between atoms: C2_47  and  O2_85 
REMARK       I    between atoms: N_52  and  C2_71 
REMARK       I    between atoms: C3_53  and  O3_81 
REMARK       I    between atoms: C1_56  and  O3_81 
REMARK       I    between atoms: C7_57  and  C8_64 
REMARK       I    between atoms: C7_57  and  N_63 
REMARK       I    between atoms: C8_58  and  C7_73 
REMARK       I    between atoms: C1_59  and  O1_68 
REMARK       I    between atoms: N_63  and  C2_67 
REMARK       I    between atoms: C4_69  and  O4_86 
REMARK       I    between atoms: N_72  and  C7_73 
REMARK       I    between atoms: C2_77  and  O2_82 
ROOT
ATOM      1  OSB ASG d 302      17.093  36.921  50.545  0.00  0.00    -0.572 OA
ATOM      2  O6  ASG d 302      18.007  32.630  50.812  0.00  0.00    -0.398 OA
ATOM      3  O4  ASG d 302      15.968  36.022  52.572  0.00  0.00    -0.246 OA
ATOM      4  S   ASG d 302      16.059  37.222  51.516  0.00  0.00     0.252 S 
ATOM      5  C6  ASG d 302      17.354  33.863  51.104  0.00  0.00     0.043 C 
ATOM      6  C2  ASG d 302      14.933  34.361  54.608  0.00  0.00     0.087 C 
ATOM      7  C1  ASG d 302      15.955  33.242  54.475  0.00  0.00     0.154 C 
ATOM      8  O5  ASG d 302      16.903  33.501  53.414  0.00  0.00    -0.349 OA
ATOM      9  C5  ASG d 302      16.265  33.658  52.125  0.00  0.00     0.090 C 
ATOM     10  O7  ASG d 302      14.234  36.000  56.869  0.00  0.00    -0.274 OA
ATOM     11  C3  ASG d 302      14.220  34.493  53.274  0.00  0.00     0.094 C 
ATOM     12  C8  ASG d 302      12.667  34.383  57.703  0.00  0.00    -0.003 C 
ATOM     13  OSA ASG d 302      14.787  37.390  50.837  0.00  0.00    -0.572 OA
ATOM     14  N   ASG d 302      13.954  34.031  55.686  0.00  0.00    -0.349 N 
ATOM     15  C7  ASG d 302      13.698  34.912  56.733  0.00  0.00     0.214 C 
ATOM     16  OSC ASG d 302      16.397  38.442  52.214  0.00  0.00    -0.572 OA
ATOM     17  O3  ASG d 302      13.334  35.549  53.378  0.00  0.00    -0.348 OA
ATOM     18  C4  ASG d 302      15.260  34.826  52.191  0.00  0.00     0.114 C 
ATOM     19  H   ASG d 302      18.703  32.781  50.155  0.00  0.00     0.209 HD
ATOM     20  H   ASG d 302      16.924  34.254  50.206  0.00  0.00     0.078 H 
ATOM     21  H   ASG d 302      18.074  34.549  51.500  0.00  0.00     0.078 H 
ATOM     22  H   ASG d 302      15.413  35.282  54.865  0.00  0.00     0.084 H 
ATOM     23  H   ASG d 302      15.419  32.344  54.249  0.00  0.00     0.132 H 
ATOM     24  H   ASG d 302      15.701  32.794  51.843  0.00  0.00     0.090 H 
ATOM     25  H   ASG d 302      13.708  33.588  53.021  0.00  0.00     0.091 H 
ATOM     26  H   ASG d 302      12.510  35.098  58.483  0.00  0.00     0.040 H 
ATOM     27  H   ASG d 302      13.015  33.463  58.127  0.00  0.00     0.040 H 
ATOM     28  H   ASG d 302      11.746  34.211  57.187  0.00  0.00     0.040 H 
ATOM     29  H   ASG d 302      13.479  33.169  55.656  0.00  0.00     0.163 HD
ATOM     30  H   ASG d 302      14.783  34.973  51.245  0.00  0.00     0.093 H 
ATOM     31  C6  BDP d 303      10.551  33.969  49.926  0.00  0.00     0.206 C 
ATOM     32  O4  BDP d 303       8.298  35.299  51.335  0.00  0.00    -0.348 OA
ATOM     33  O3  BDP d 303       8.848  37.177  53.382  0.00  0.00    -0.390 OA
ATOM     34  C3  BDP d 303       9.688  36.042  53.117  0.00  0.00     0.092 C 
ATOM     35  O6B BDP d 303      10.700  34.862  49.067  0.00  0.00    -0.646 OA
ATOM     36  C4  BDP d 303       9.605  35.655  51.633  0.00  0.00     0.103 C 
ATOM     37  C2  BDP d 303      11.126  36.408  53.429  0.00  0.00     0.110 C 
ATOM     38  O6A BDP d 303      10.406  32.734  49.779  0.00  0.00    -0.646 OA
ATOM     39  C1  BDP d 303      12.015  35.212  53.129  0.00  0.00     0.160 C 
ATOM     40  C5  BDP d 303      10.536  34.439  51.379  0.00  0.00     0.152 C 
ATOM     41  O5  BDP d 303      11.899  34.799  51.741  0.00  0.00    -0.340 OA
ATOM     42  O2  BDP d 303      11.264  36.752  54.811  0.00  0.00    -0.388 OA
ATOM     43  H   BDP d 303       8.909  37.411  54.321  0.00  0.00     0.210 HD
ATOM     44  H   BDP d 303       9.362  35.222  53.723  0.00  0.00     0.091 H 
ATOM     45  H   BDP d 303       9.906  36.478  51.020  0.00  0.00     0.092 H 
ATOM     46  H   BDP d 303      11.410  37.247  52.829  0.00  0.00     0.094 H 
ATOM     47  H   BDP d 303      11.704  34.403  53.756  0.00  0.00     0.133 H 
ATOM     48  H   BDP d 303      10.153  33.638  51.976  0.00  0.00     0.104 H 
ATOM     49  H   BDP d 303      11.009  35.994  55.360  0.00  0.00     0.210 HD
ATOM     50  C1  ASG d 306       6.848  33.910  42.356  0.00  0.00     0.151 C 
ATOM     51  C4  ASG d 306       7.754  34.941  39.766  0.00  0.00     0.089 C 
ATOM     52  C6  ASG d 306       8.420  37.021  41.068  0.00  0.00     0.043 C 
ATOM     53  S   ASG d 306       6.434  36.175  37.929  0.00  0.00     0.252 S 
ATOM     54  O4  ASG d 306       6.521  35.555  39.387  0.00  0.00    -0.249 OA
ATOM     55  OSB ASG d 306       5.104  36.723  37.728  0.00  0.00    -0.572 OA
ATOM     56  OSA ASG d 306       7.418  37.235  37.800  0.00  0.00    -0.572 OA
ATOM     57  C3  ASG d 306       7.514  33.394  39.896  0.00  0.00    -0.014 C 
ATOM     58  C7  ASG d 306       4.802  31.351  41.499  0.00  0.00     0.214 C 
ATOM     59  N   ASG d 306       6.116  31.808  41.371  0.00  0.00    -0.352 N 
ATOM     60  C8  ASG d 306       4.729  29.875  41.801  0.00  0.00    -0.003 C 
ATOM     61  C2  ASG d 306       6.413  33.247  41.085  0.00  0.00     0.062 C 
ATOM     62  O5  ASG d 306       7.142  35.310  42.136  0.00  0.00    -0.349 OA
ATOM     63  O6  ASG d 306       8.713  37.551  42.360  0.00  0.00    -0.398 OA
ATOM     64  O7  ASG d 306       3.805  32.058  41.390  0.00  0.00    -0.274 OA
ATOM     65  OSC ASG d 306       6.695  35.148  36.945  0.00  0.00    -0.572 OA
ATOM     66  C5  ASG d 306       8.189  35.528  41.140  0.00  0.00     0.088 C 
ATOM     67  H   ASG d 306       7.742  33.444  42.714  0.00  0.00     0.132 H 
ATOM     68  H   ASG d 306       8.518  35.126  39.039  0.00  0.00     0.089 H 
ATOM     69  H   ASG d 306       7.540  37.495  40.686  0.00  0.00     0.078 H 
ATOM     70  H   ASG d 306       9.254  37.209  40.424  0.00  0.00     0.078 H 
ATOM     71  H   ASG d 306       8.421  32.892  40.159  0.00  0.00     0.040 H 
ATOM     72  H   ASG d 306       7.180  32.958  38.979  0.00  0.00     0.040 H 
ATOM     73  H   ASG d 306       6.861  31.172  41.471  0.00  0.00     0.163 HD
ATOM     74  H   ASG d 306       5.719  29.471  41.848  0.00  0.00     0.040 H 
ATOM     75  H   ASG d 306       4.179  29.380  41.028  0.00  0.00     0.040 H 
ATOM     76  H   ASG d 306       4.237  29.727  42.739  0.00  0.00     0.040 H 
ATOM     77  H   ASG d 306       5.531  33.739  40.730  0.00  0.00     0.080 H 
ATOM     78  H   ASG d 306       7.964  37.387  42.954  0.00  0.00     0.209 HD
ATOM     79  H   ASG d 306       9.098  35.031  41.410  0.00  0.00     0.090 H 
ATOM     80  C5  BDP d 305       5.611  33.157  45.616  0.00  0.00     0.152 C 
ATOM     81  O6B BDP d 305       7.864  32.658  46.052  0.00  0.00    -0.646 OA
ATOM     82  C6  BDP d 305       6.807  32.215  45.565  0.00  0.00     0.206 C 
ATOM     83  O4  BDP d 305       5.827  33.777  43.292  0.00  0.00    -0.348 OA
ATOM     84  O3  BDP d 305       4.465  36.233  43.728  0.00  0.00    -0.390 OA
ATOM     85  C2  BDP d 305       4.456  35.784  46.076  0.00  0.00     0.110 C 
ATOM     86  C1  BDP d 305       4.440  34.668  47.131  0.00  0.00     0.160 C 
ATOM     87  C4  BDP d 305       5.688  34.290  44.567  0.00  0.00     0.103 C 
ATOM     88  O6A BDP d 305       6.573  31.104  45.030  0.00  0.00    -0.646 OA
ATOM     89  C3  BDP d 305       4.433  35.175  44.688  0.00  0.00     0.092 C 
ATOM     90  O2  BDP d 305       3.319  36.625  46.290  0.00  0.00    -0.388 OA
ATOM     91  O5  BDP d 305       5.568  33.759  46.946  0.00  0.00    -0.340 OA
ATOM     92  H   BDP d 305       4.734  32.583  45.400  0.00  0.00     0.104 H 
ATOM     93  H   BDP d 305       3.667  36.778  43.821  0.00  0.00     0.210 HD
ATOM     94  H   BDP d 305       5.346  36.371  46.161  0.00  0.00     0.094 H 
ATOM     95  H   BDP d 305       3.528  34.120  47.015  0.00  0.00     0.133 H 
ATOM     96  H   BDP d 305       6.553  34.890  44.755  0.00  0.00     0.092 H 
ATOM     97  H   BDP d 305       3.555  34.589  44.517  0.00  0.00     0.091 H 
ATOM     98  H   BDP d 305       2.508  36.099  46.214  0.00  0.00     0.210 HD
ATOM     99  O6B BDP d 301      15.443  30.179  57.434  0.00  0.00    -0.646 OA
ATOM    100  C6  BDP d 301      15.725  31.356  57.750  0.00  0.00     0.206 C 
ATOM    101  O6A BDP d 301      15.012  32.236  58.279  0.00  0.00    -0.646 OA
ATOM    102  O5  BDP d 301      18.055  30.784  57.973  0.00  0.00    -0.340 OA
ATOM    103  C5  BDP d 301      17.155  31.787  57.450  0.00  0.00     0.152 C 
ATOM    104  C3  BDP d 301      18.915  32.408  55.777  0.00  0.00     0.092 C 
ATOM    105  C1  BDP d 301      19.462  31.105  57.752  0.00  0.00     0.156 C 
ATOM    106  O1  BDP d 301      20.265  29.997  58.390  0.00  0.00    -0.368 OA
ATOM    107  C4  BDP d 301      17.426  32.024  55.965  0.00  0.00     0.103 C 
ATOM    108  C2  BDP d 301      19.785  31.273  56.296  0.00  0.00     0.110 C 
ATOM    109  O2  BDP d 301      21.171  31.583  56.173  0.00  0.00    -0.388 OA
ATOM    110  O4  BDP d 301      16.653  33.124  55.644  0.00  0.00    -0.348 OA
ATOM    111  O3  BDP d 301      19.196  32.612  54.391  0.00  0.00    -0.390 OA
ATOM    112  H   BDP d 301      17.315  32.732  57.925  0.00  0.00     0.104 H 
ATOM    113  H   BDP d 301      19.119  33.310  56.316  0.00  0.00     0.091 H 
ATOM    114  H   BDP d 301      19.705  32.048  58.196  0.00  0.00     0.133 H 
ATOM    115  H   BDP d 301      20.033  29.151  57.977  0.00  0.00     0.212 HD
ATOM    116  H   BDP d 301      17.208  31.165  55.365  0.00  0.00     0.092 H 
ATOM    117  H   BDP d 301      19.591  30.385  55.731  0.00  0.00     0.094 H 
ATOM    118  H   BDP d 301      21.369  32.386  56.679  0.00  0.00     0.210 HD
ATOM    119  H   BDP d 301      19.011  31.795  53.900  0.00  0.00     0.210 HD
ATOM    120  OSC ASG d 304       2.355  37.959  51.316  0.00  0.00    -0.572 OA
ATOM    121  O3  ASG d 304       4.506  35.222  48.427  0.00  0.00    -0.348 OA
ATOM    122  C5  ASG d 304       6.757  38.037  49.534  0.00  0.00     0.090 C 
ATOM    123  C6  ASG d 304       6.585  39.470  49.974  0.00  0.00     0.043 C 
ATOM    124  O4  ASG d 304       4.551  37.385  50.313  0.00  0.00    -0.246 OA
ATOM    125  C7  ASG d 304       6.731  32.717  50.444  0.00  0.00     0.214 C 
ATOM    126  C8  ASG d 304       7.069  31.385  49.813  0.00  0.00    -0.003 C 
ATOM    127  S   ASG d 304       3.150  38.125  50.116  0.00  0.00     0.252 S 
ATOM    128  OSB ASG d 304       3.369  39.539  49.870  0.00  0.00    -0.572 OA
ATOM    129  N   ASG d 304       6.699  33.754  49.522  0.00  0.00    -0.349 N 
ATOM    130  C4  ASG d 304       5.420  37.351  49.170  0.00  0.00     0.114 C 
ATOM    131  C3  ASG d 304       5.711  35.891  48.764  0.00  0.00     0.094 C 
ATOM    132  C1  ASG d 304       7.677  35.917  50.261  0.00  0.00     0.154 C 
ATOM    133  O7  ASG d 304       6.514  32.851  51.637  0.00  0.00    -0.274 OA
ATOM    134  O6  ASG d 304       7.821  40.180  49.878  0.00  0.00    -0.398 OA
ATOM    135  O5  ASG d 304       7.417  37.308  50.612  0.00  0.00    -0.349 OA
ATOM    136  C2  ASG d 304       6.386  35.168  49.917  0.00  0.00     0.087 C 
ATOM    137  OSA ASG d 304       2.451  37.550  48.979  0.00  0.00    -0.572 OA
ATOM    138  H   ASG d 304       7.347  38.029  48.642  0.00  0.00     0.090 H 
ATOM    139  H   ASG d 304       6.249  39.488  50.989  0.00  0.00     0.078 H 
ATOM    140  H   ASG d 304       5.867  39.942  49.337  0.00  0.00     0.078 H 
ATOM    141  H   ASG d 304       7.216  31.515  48.761  0.00  0.00     0.040 H 
ATOM    142  H   ASG d 304       6.265  30.698  49.979  0.00  0.00     0.040 H 
ATOM    143  H   ASG d 304       7.964  30.998  50.254  0.00  0.00     0.040 H 
ATOM    144  H   ASG d 304       6.889  33.554  48.577  0.00  0.00     0.163 HD
ATOM    145  H   ASG d 304       4.944  37.857  48.357  0.00  0.00     0.093 H 
ATOM    146  H   ASG d 304       6.356  35.894  47.910  0.00  0.00     0.091 H 
ATOM    147  H   ASG d 304       8.305  35.897  49.395  0.00  0.00     0.132 H 
ATOM    148  H   ASG d 304       8.481  39.761  50.453  0.00  0.00     0.209 HD
ATOM    149  H   ASG d 304       5.738  35.142  50.767  0.00  0.00     0.084 H 
ENDROOT
TORSDOF 38
ENDMDL
MODEL 41
REMARK VINA RESULT:      -5.8      3.764      5.882
REMARK  0 active torsions:
REMARK  status: ('A' for Active; 'I' for Inactive)
REMARK       I    between atoms: C6_2  and  C5_74 
REMARK       I    between atoms: C1_3  and  O4_24 
REMARK       I    between atoms: O6_4  and  C6_26 
REMARK       I    between atoms: C5_5  and  C6_12 
REMARK       I    between atoms: C4_6  and  O4_22 
REMARK       I    between atoms: C6_8  and  C5_90 
REMARK       I    between atoms: C6_8  and  O6_83 
REMARK       I    between atoms: O3_11  and  C3_60 
REMARK       I    between atoms: O3_11  and  C1_29 
REMARK       I    between atoms: C5_13  and  C6_18 
REMARK       I    between atoms: O4_14  and  C4_88 
REMARK       I    between atoms: O4_14  and  S_15 
REMARK       I    between atoms: C6_16  and  C5_28 
REMARK       I    between atoms: S_17  and  O4_22 
REMARK       I    between atoms: C6_18  and  O6_66 
REMARK       I    between atoms: O4_20  and  C4_46 
REMARK       I    between atoms: O4_20  and  C1_61 
REMARK       I    between atoms: O4_21  and  C4_54 
REMARK       I    between atoms: O4_21  and  S_40 
REMARK       I    between atoms: O4_24  and  C4_35 
REMARK       I    between atoms: O3_25  and  C3_48 
REMARK       I    between atoms: C6_26  and  C5_50 
REMARK       I    between atoms: C2_27  and  O2_55 
REMARK       I    between atoms: O3_31  and  C3_37 
REMARK       I    between atoms: C2_32  and  N_72 
REMARK       I    between atoms: C7_33  and  C8_39 
REMARK       I    between atoms: C7_33  and  N_52 
REMARK       I    between atoms: C1_34  and  O4_86 
REMARK       I    between atoms: C3_36  and  O3_87 
REMARK       I    between atoms: C2_47  and  O2_85 
REMARK       I    between atoms: N_52  and  C2_71 
REMARK       I    between atoms: C3_53  and  O3_81 
REMARK       I    between atoms: C1_56  and  O3_81 
REMARK       I    between atoms: C7_57  and  C8_64 
REMARK       I    between atoms: C7_57  and  N_63 
REMARK       I    between atoms: C8_58  and  C7_73 
REMARK       I    between atoms: C1_59  and  O1_68 
REMARK       I    between atoms: N_63  and  C2_67 
REMARK       I    between atoms: C4_69  and  O4_86 
REMARK       I    between atoms: N_72  and  C7_73 
REMARK       I    between atoms: C2_77  and  O2_82 
ROOT
ATOM      1  OSB ASG d 302      16.703  40.092  48.937  0.00  0.00    -0.572 OA
ATOM      2  O6  ASG d 302      17.882  37.154  45.889  0.00  0.00    -0.398 OA
ATOM      3  O4  ASG d 302      17.714  38.142  50.102  0.00  0.00    -0.246 OA
ATOM      4  S   ASG d 302      16.817  39.462  50.237  0.00  0.00     0.252 S 
ATOM      5  C6  ASG d 302      17.599  37.671  47.186  0.00  0.00     0.043 C 
ATOM      6  C2  ASG d 302      18.859  35.644  50.748  0.00  0.00     0.087 C 
ATOM      7  C1  ASG d 302      19.480  35.364  49.387  0.00  0.00     0.154 C 
ATOM      8  O5  ASG d 302      19.189  36.413  48.436  0.00  0.00    -0.349 OA
ATOM      9  C5  ASG d 302      17.769  36.600  48.233  0.00  0.00     0.090 C 
ATOM     10  O7  ASG d 302      20.067  35.829  53.355  0.00  0.00    -0.274 OA
ATOM     11  C3  ASG d 302      17.361  35.784  50.550  0.00  0.00     0.094 C 
ATOM     12  C8  ASG d 302      19.937  33.458  53.711  0.00  0.00    -0.003 C 
ATOM     13  OSA ASG d 302      15.496  39.122  50.731  0.00  0.00    -0.572 OA
ATOM     14  N   ASG d 302      19.153  34.517  51.683  0.00  0.00    -0.349 N 
ATOM     15  C7  ASG d 302      19.741  34.734  52.926  0.00  0.00     0.214 C 
ATOM     16  OSC ASG d 302      17.455  40.375  51.158  0.00  0.00    -0.572 OA
ATOM     17  O3  ASG d 302      16.806  36.098  51.776  0.00  0.00    -0.348 OA
ATOM     18  C4  ASG d 302      17.100  36.948  49.579  0.00  0.00     0.114 C 
ATOM     19  H   ASG d 302      17.768  37.855  45.230  0.00  0.00     0.209 HD
ATOM     20  H   ASG d 302      16.591  38.029  47.210  0.00  0.00     0.078 H 
ATOM     21  H   ASG d 302      18.280  38.469  47.396  0.00  0.00     0.078 H 
ATOM     22  H   ASG d 302      19.264  36.540  51.171  0.00  0.00     0.084 H 
ATOM     23  H   ASG d 302      19.064  34.446  49.029  0.00  0.00     0.132 H 
ATOM     24  H   ASG d 302      17.288  35.710  47.882  0.00  0.00     0.090 H 
ATOM     25  H   ASG d 302      16.939  34.882  50.159  0.00  0.00     0.091 H 
ATOM     26  H   ASG d 302      20.389  33.685  54.653  0.00  0.00     0.040 H 
ATOM     27  H   ASG d 302      20.571  32.794  53.161  0.00  0.00     0.040 H 
ATOM     28  H   ASG d 302      18.988  32.991  53.875  0.00  0.00     0.040 H 
ATOM     29  H   ASG d 302      18.926  33.598  51.413  0.00  0.00     0.163 HD
ATOM     30  H   ASG d 302      16.049  37.105  49.453  0.00  0.00     0.093 H 
ATOM     31  C6  BDP d 303      12.547  34.456  50.625  0.00  0.00     0.206 C 
ATOM     32  O4  BDP d 303      12.172  33.832  53.506  0.00  0.00    -0.348 OA
ATOM     33  O3  BDP d 303      13.941  34.946  55.415  0.00  0.00    -0.390 OA
ATOM     34  C3  BDP d 303      14.349  34.597  54.082  0.00  0.00     0.092 C 
ATOM     35  O6B BDP d 303      11.871  35.504  50.639  0.00  0.00    -0.646 OA
ATOM     36  C4  BDP d 303      13.163  34.720  53.115  0.00  0.00     0.103 C 
ATOM     37  C2  BDP d 303      15.429  35.560  53.629  0.00  0.00     0.110 C 
ATOM     38  O6A BDP d 303      12.462  33.461  49.869  0.00  0.00    -0.646 OA
ATOM     39  C1  BDP d 303      15.845  35.202  52.211  0.00  0.00     0.160 C 
ATOM     40  C5  BDP d 303      13.642  34.355  51.685  0.00  0.00     0.152 C 
ATOM     41  O5  BDP d 303      14.717  35.256  51.298  0.00  0.00    -0.340 OA
ATOM     42  O2  BDP d 303      16.573  35.465  54.484  0.00  0.00    -0.388 OA
ATOM     43  H   BDP d 303      14.698  34.864  56.016  0.00  0.00     0.210 HD
ATOM     44  H   BDP d 303      14.711  33.590  54.084  0.00  0.00     0.091 H 
ATOM     45  H   BDP d 303      12.780  35.719  53.126  0.00  0.00     0.092 H 
ATOM     46  H   BDP d 303      15.045  36.558  53.667  0.00  0.00     0.094 H 
ATOM     47  H   BDP d 303      16.231  34.204  52.222  0.00  0.00     0.133 H 
ATOM     48  H   BDP d 303      13.960  33.334  51.727  0.00  0.00     0.104 H 
ATOM     49  H   BDP d 303      16.926  34.562  54.453  0.00  0.00     0.210 HD
ATOM     50  C1  ASG d 306       4.328  34.808  48.797  0.00  0.00     0.151 C 
ATOM     51  C4  ASG d 306       2.726  36.922  47.547  0.00  0.00     0.089 C 
ATOM     52  C6  ASG d 306       3.958  38.492  49.123  0.00  0.00     0.043 C 
ATOM     53  S   ASG d 306       0.356  37.753  48.122  0.00  0.00     0.252 S 
ATOM     54  O4  ASG d 306       1.623  36.855  48.451  0.00  0.00    -0.249 OA
ATOM     55  OSB ASG d 306      -0.659  37.527  49.135  0.00  0.00    -0.572 OA
ATOM     56  OSA ASG d 306       0.746  39.152  48.133  0.00  0.00    -0.572 OA
ATOM     57  C3  ASG d 306       2.834  35.544  46.800  0.00  0.00    -0.014 C 
ATOM     58  C7  ASG d 306       2.662  31.979  47.966  0.00  0.00     0.214 C 
ATOM     59  N   ASG d 306       3.310  33.086  47.411  0.00  0.00    -0.352 N 
ATOM     60  C8  ASG d 306       2.999  30.693  47.255  0.00  0.00    -0.003 C 
ATOM     61  C2  ASG d 306       3.124  34.459  47.977  0.00  0.00     0.062 C 
ATOM     62  O5  ASG d 306       4.195  36.129  49.374  0.00  0.00    -0.349 OA
ATOM     63  O6  ASG d 306       5.105  38.654  49.955  0.00  0.00    -0.398 OA
ATOM     64  O7  ASG d 306       1.904  32.027  48.931  0.00  0.00    -0.274 OA
ATOM     65  OSC ASG d 306      -0.165  37.405  46.819  0.00  0.00    -0.572 OA
ATOM     66  C5  ASG d 306       4.020  37.179  48.374  0.00  0.00     0.088 C 
ATOM     67  H   ASG d 306       5.196  34.813  48.172  0.00  0.00     0.132 H 
ATOM     68  H   ASG d 306       2.595  37.708  46.832  0.00  0.00     0.089 H 
ATOM     69  H   ASG d 306       3.077  38.507  49.732  0.00  0.00     0.078 H 
ATOM     70  H   ASG d 306       3.933  39.292  48.413  0.00  0.00     0.078 H 
ATOM     71  H   ASG d 306       3.639  35.559  46.095  0.00  0.00     0.040 H 
ATOM     72  H   ASG d 306       1.949  35.313  46.246  0.00  0.00     0.040 H 
ATOM     73  H   ASG d 306       3.901  32.960  46.634  0.00  0.00     0.163 HD
ATOM     74  H   ASG d 306       3.674  30.897  46.450  0.00  0.00     0.040 H 
ATOM     75  H   ASG d 306       2.103  30.254  46.867  0.00  0.00     0.040 H 
ATOM     76  H   ASG d 306       3.459  30.015  47.943  0.00  0.00     0.040 H 
ATOM     77  H   ASG d 306       2.263  34.479  48.613  0.00  0.00     0.080 H 
ATOM     78  H   ASG d 306       5.139  37.934  50.604  0.00  0.00     0.209 HD
ATOM     79  H   ASG d 306       4.830  37.196  47.675  0.00  0.00     0.090 H 
ATOM     80  C5  BDP d 305       6.232  32.521  50.763  0.00  0.00     0.152 C 
ATOM     81  O6B BDP d 305       7.987  33.209  49.362  0.00  0.00    -0.646 OA
ATOM     82  C6  BDP d 305       7.005  32.448  49.454  0.00  0.00     0.206 C 
ATOM     83  O4  BDP d 305       4.464  33.857  49.803  0.00  0.00    -0.348 OA
ATOM     84  O3  BDP d 305       3.748  34.900  52.348  0.00  0.00    -0.390 OA
ATOM     85  C2  BDP d 305       5.643  33.802  53.306  0.00  0.00     0.110 C 
ATOM     86  C1  BDP d 305       6.576  32.588  53.177  0.00  0.00     0.160 C 
ATOM     87  C4  BDP d 305       5.339  33.779  50.869  0.00  0.00     0.103 C 
ATOM     88  O6A BDP d 305       6.548  31.624  48.623  0.00  0.00    -0.646 OA
ATOM     89  C3  BDP d 305       4.591  33.754  52.215  0.00  0.00     0.092 C 
ATOM     90  O2  BDP d 305       5.045  33.777  54.604  0.00  0.00    -0.388 OA
ATOM     91  O5  BDP d 305       7.200  32.547  51.857  0.00  0.00    -0.340 OA
ATOM     92  H   BDP d 305       5.587  31.669  50.810  0.00  0.00     0.104 H 
ATOM     93  H   BDP d 305       3.287  34.866  53.201  0.00  0.00     0.210 HD
ATOM     94  H   BDP d 305       6.192  34.713  53.191  0.00  0.00     0.094 H 
ATOM     95  H   BDP d 305       5.987  31.706  53.313  0.00  0.00     0.133 H 
ATOM     96  H   BDP d 305       5.953  34.654  50.831  0.00  0.00     0.092 H 
ATOM     97  H   BDP d 305       3.982  32.877  52.279  0.00  0.00     0.091 H 
ATOM     98  H   BDP d 305       4.546  32.953  54.714  0.00  0.00     0.210 HD
ATOM     99  O6B BDP d 301      21.808  31.762  49.344  0.00  0.00    -0.646 OA
ATOM    100  C6  BDP d 301      22.115  32.732  50.072  0.00  0.00     0.206 C 
ATOM    101  O6A BDP d 301      22.016  32.866  51.311  0.00  0.00    -0.646 OA
ATOM    102  O5  BDP d 301      23.753  33.472  48.468  0.00  0.00    -0.340 OA
ATOM    103  C5  BDP d 301      22.699  33.935  49.342  0.00  0.00     0.152 C 
ATOM    104  C3  BDP d 301      22.379  35.899  47.818  0.00  0.00     0.092 C 
ATOM    105  C1  BDP d 301      24.398  34.552  47.726  0.00  0.00     0.156 C 
ATOM    106  O1  BDP d 301      25.494  33.919  46.904  0.00  0.00    -0.368 OA
ATOM    107  C4  BDP d 301      21.665  34.736  48.552  0.00  0.00     0.103 C 
ATOM    108  C2  BDP d 301      23.425  35.318  46.878  0.00  0.00     0.110 C 
ATOM    109  O2  BDP d 301      24.135  36.347  46.192  0.00  0.00    -0.388 OA
ATOM    110  O4  BDP d 301      20.838  35.278  49.517  0.00  0.00    -0.348 OA
ATOM    111  O3  BDP d 301      21.433  36.648  47.053  0.00  0.00    -0.390 OA
ATOM    112  H   BDP d 301      23.080  34.608  50.081  0.00  0.00     0.104 H 
ATOM    113  H   BDP d 301      22.841  36.542  48.538  0.00  0.00     0.091 H 
ATOM    114  H   BDP d 301      24.804  35.278  48.398  0.00  0.00     0.133 H 
ATOM    115  H   BDP d 301      25.109  33.264  46.301  0.00  0.00     0.212 HD
ATOM    116  H   BDP d 301      21.143  34.138  47.835  0.00  0.00     0.092 H 
ATOM    117  H   BDP d 301      22.947  34.700  46.147  0.00  0.00     0.094 H 
ATOM    118  H   BDP d 301      24.577  36.920  46.838  0.00  0.00     0.210 HD
ATOM    119  H   BDP d 301      21.012  36.066  46.401  0.00  0.00     0.210 HD
ATOM    120  OSC ASG d 304       8.308  32.706  58.625  0.00  0.00    -0.572 OA
ATOM    121  O3  ASG d 304       7.588  32.647  54.160  0.00  0.00    -0.348 OA
ATOM    122  C5  ASG d 304       9.551  35.706  55.159  0.00  0.00     0.090 C 
ATOM    123  C6  ASG d 304       9.656  36.593  56.376  0.00  0.00     0.043 C 
ATOM    124  O4  ASG d 304       8.898  33.761  56.458  0.00  0.00    -0.246 OA
ATOM    125  C7  ASG d 304      10.770  31.254  52.362  0.00  0.00     0.214 C 
ATOM    126  C8  ASG d 304      10.604  30.596  51.011  0.00  0.00    -0.003 C 
ATOM    127  S   ASG d 304       7.824  33.645  57.633  0.00  0.00     0.252 S 
ATOM    128  OSB ASG d 304       7.624  34.944  58.250  0.00  0.00    -0.572 OA
ATOM    129  N   ASG d 304       9.922  32.337  52.539  0.00  0.00    -0.349 N 
ATOM    130  C4  ASG d 304       8.522  34.565  55.329  0.00  0.00     0.114 C 
ATOM    131  C3  ASG d 304       8.517  33.712  54.043  0.00  0.00     0.094 C 
ATOM    132  C1  ASG d 304      10.887  34.319  53.690  0.00  0.00     0.154 C 
ATOM    133  O7  ASG d 304      11.570  30.864  53.197  0.00  0.00    -0.274 OA
ATOM    134  O6  ASG d 304      10.258  37.844  56.039  0.00  0.00    -0.398 OA
ATOM    135  O5  ASG d 304      10.873  35.153  54.886  0.00  0.00    -0.349 OA
ATOM    136  C2  ASG d 304       9.907  33.147  53.803  0.00  0.00     0.087 C 
ATOM    137  OSA ASG d 304       6.558  33.178  57.093  0.00  0.00    -0.572 OA
ATOM    138  H   ASG d 304       9.203  36.301  54.341  0.00  0.00     0.090 H 
ATOM    139  H   ASG d 304      10.254  36.104  57.115  0.00  0.00     0.078 H 
ATOM    140  H   ASG d 304       8.673  36.775  56.755  0.00  0.00     0.078 H 
ATOM    141  H   ASG d 304       9.848  31.110  50.454  0.00  0.00     0.040 H 
ATOM    142  H   ASG d 304      10.316  29.575  51.144  0.00  0.00     0.040 H 
ATOM    143  H   ASG d 304      11.531  30.638  50.477  0.00  0.00     0.040 H 
ATOM    144  H   ASG d 304       9.308  32.583  51.810  0.00  0.00     0.163 HD
ATOM    145  H   ASG d 304       7.542  34.961  55.495  0.00  0.00     0.093 H 
ATOM    146  H   ASG d 304       8.232  34.332  53.219  0.00  0.00     0.091 H 
ATOM    147  H   ASG d 304      10.584  34.916  52.855  0.00  0.00     0.132 H 
ATOM    148  H   ASG d 304      11.152  37.690  55.694  0.00  0.00     0.209 HD
ATOM    149  H   ASG d 304      10.191  32.508  54.613  0.00  0.00     0.084 H 
ENDROOT
TORSDOF 38
ENDMDL
MODEL 42
REMARK VINA RESULT:      -5.8      3.655     14.844
REMARK  0 active torsions:
REMARK  status: ('A' for Active; 'I' for Inactive)
REMARK       I    between atoms: C6_2  and  C5_74 
REMARK       I    between atoms: C1_3  and  O4_24 
REMARK       I    between atoms: O6_4  and  C6_26 
REMARK       I    between atoms: C5_5  and  C6_12 
REMARK       I    between atoms: C4_6  and  O4_22 
REMARK       I    between atoms: C6_8  and  C5_90 
REMARK       I    between atoms: C6_8  and  O6_83 
REMARK       I    between atoms: O3_11  and  C3_60 
REMARK       I    between atoms: O3_11  and  C1_29 
REMARK       I    between atoms: C5_13  and  C6_18 
REMARK       I    between atoms: O4_14  and  C4_88 
REMARK       I    between atoms: O4_14  and  S_15 
REMARK       I    between atoms: C6_16  and  C5_28 
REMARK       I    between atoms: S_17  and  O4_22 
REMARK       I    between atoms: C6_18  and  O6_66 
REMARK       I    between atoms: O4_20  and  C4_46 
REMARK       I    between atoms: O4_20  and  C1_61 
REMARK       I    between atoms: O4_21  and  C4_54 
REMARK       I    between atoms: O4_21  and  S_40 
REMARK       I    between atoms: O4_24  and  C4_35 
REMARK       I    between atoms: O3_25  and  C3_48 
REMARK       I    between atoms: C6_26  and  C5_50 
REMARK       I    between atoms: C2_27  and  O2_55 
REMARK       I    between atoms: O3_31  and  C3_37 
REMARK       I    between atoms: C2_32  and  N_72 
REMARK       I    between atoms: C7_33  and  C8_39 
REMARK       I    between atoms: C7_33  and  N_52 
REMARK       I    between atoms: C1_34  and  O4_86 
REMARK       I    between atoms: C3_36  and  O3_87 
REMARK       I    between atoms: C2_47  and  O2_85 
REMARK       I    between atoms: N_52  and  C2_71 
REMARK       I    between atoms: C3_53  and  O3_81 
REMARK       I    between atoms: C1_56  and  O3_81 
REMARK       I    between atoms: C7_57  and  C8_64 
REMARK       I    between atoms: C7_57  and  N_63 
REMARK       I    between atoms: C8_58  and  C7_73 
REMARK       I    between atoms: C1_59  and  O1_68 
REMARK       I    between atoms: N_63  and  C2_67 
REMARK       I    between atoms: C4_69  and  O4_86 
REMARK       I    between atoms: N_72  and  C7_73 
REMARK       I    between atoms: C2_77  and  O2_82 
ROOT
ATOM      1  OSB ASG d 302       6.400  33.449  49.266  0.00  0.00    -0.572 OA
ATOM      2  O6  ASG d 302       5.875  37.557  47.796  0.00  0.00    -0.398 OA
ATOM      3  O4  ASG d 302       6.521  34.984  51.219  0.00  0.00    -0.246 OA
ATOM      4  S   ASG d 302       6.824  33.518  50.651  0.00  0.00     0.252 S 
ATOM      5  C6  ASG d 302       6.195  36.511  48.709  0.00  0.00     0.043 C 
ATOM      6  C2  ASG d 302       6.632  37.240  52.912  0.00  0.00     0.087 C 
ATOM      7  C1  ASG d 302       5.901  38.205  51.988  0.00  0.00     0.154 C 
ATOM      8  O5  ASG d 302       5.542  37.581  50.734  0.00  0.00    -0.349 OA
ATOM      9  C5  ASG d 302       6.692  37.080  50.013  0.00  0.00     0.090 C 
ATOM     10  O7  ASG d 302       6.031  36.406  55.601  0.00  0.00    -0.274 OA
ATOM     11  C3  ASG d 302       7.871  36.754  52.182  0.00  0.00     0.094 C 
ATOM     12  C8  ASG d 302       7.169  38.290  56.562  0.00  0.00    -0.003 C 
ATOM     13  OSA ASG d 302       8.243  33.228  50.740  0.00  0.00    -0.572 OA
ATOM     14  N   ASG d 302       7.016  37.939  54.174  0.00  0.00    -0.349 N 
ATOM     15  C7  ASG d 302       6.668  37.432  55.424  0.00  0.00     0.214 C 
ATOM     16  OSC ASG d 302       6.085  32.548  51.427  0.00  0.00    -0.572 OA
ATOM     17  O3  ASG d 302       8.501  35.834  52.998  0.00  0.00    -0.348 OA
ATOM     18  C4  ASG d 302       7.434  36.048  50.887  0.00  0.00     0.114 C 
ATOM     19  H   ASG d 302       5.557  37.173  46.964  0.00  0.00     0.209 HD
ATOM     20  H   ASG d 302       6.957  35.893  48.282  0.00  0.00     0.078 H 
ATOM     21  H   ASG d 302       5.313  35.935  48.897  0.00  0.00     0.078 H 
ATOM     22  H   ASG d 302       6.003  36.414  53.168  0.00  0.00     0.084 H 
ATOM     23  H   ASG d 302       6.563  39.022  51.792  0.00  0.00     0.132 H 
ATOM     24  H   ASG d 302       7.401  37.851  49.793  0.00  0.00     0.090 H 
ATOM     25  H   ASG d 302       8.524  37.569  51.950  0.00  0.00     0.091 H 
ATOM     26  H   ASG d 302       6.873  37.855  57.493  0.00  0.00     0.040 H 
ATOM     27  H   ASG d 302       6.751  39.272  56.479  0.00  0.00     0.040 H 
ATOM     28  H   ASG d 302       8.236  38.352  56.520  0.00  0.00     0.040 H 
ATOM     29  H   ASG d 302       7.529  38.778  54.122  0.00  0.00     0.163 HD
ATOM     30  H   ASG d 302       8.283  35.651  50.371  0.00  0.00     0.093 H 
ATOM     31  C6  BDP d 303      12.712  36.460  50.991  0.00  0.00     0.206 C 
ATOM     32  O4  BDP d 303      13.905  35.755  53.619  0.00  0.00    -0.348 OA
ATOM     33  O3  BDP d 303      12.286  34.554  55.608  0.00  0.00    -0.390 OA
ATOM     34  C3  BDP d 303      11.779  35.504  54.656  0.00  0.00     0.092 C 
ATOM     35  O6B BDP d 303      12.900  35.342  50.469  0.00  0.00    -0.646 OA
ATOM     36  C4  BDP d 303      12.584  35.428  53.351  0.00  0.00     0.103 C 
ATOM     37  C2  BDP d 303      10.336  35.164  54.341  0.00  0.00     0.110 C 
ATOM     38  O6A BDP d 303      13.025  37.599  50.575  0.00  0.00    -0.646 OA
ATOM     39  C1  BDP d 303       9.807  36.158  53.319  0.00  0.00     0.160 C 
ATOM     40  C5  BDP d 303      12.000  36.453  52.341  0.00  0.00     0.152 C 
ATOM     41  O5  BDP d 303      10.600  36.139  52.101  0.00  0.00    -0.340 OA
ATOM     42  O2  BDP d 303       9.534  35.246  55.523  0.00  0.00    -0.388 OA
ATOM     43  H   BDP d 303      11.771  34.611  56.427  0.00  0.00     0.210 HD
ATOM     44  H   BDP d 303      11.858  36.486  55.073  0.00  0.00     0.091 H 
ATOM     45  H   BDP d 303      12.530  34.442  52.940  0.00  0.00     0.092 H 
ATOM     46  H   BDP d 303      10.288  34.167  53.954  0.00  0.00     0.094 H 
ATOM     47  H   BDP d 303       9.863  37.135  53.749  0.00  0.00     0.133 H 
ATOM     48  H   BDP d 303      12.131  37.418  52.784  0.00  0.00     0.104 H 
ATOM     49  H   BDP d 303       9.572  36.148  55.878  0.00  0.00     0.210 HD
ATOM     50  C1  ASG d 306      19.520  34.449  46.448  0.00  0.00     0.151 C 
ATOM     51  C4  ASG d 306      19.842  32.631  44.170  0.00  0.00     0.089 C 
ATOM     52  C6  ASG d 306      18.450  31.006  45.545  0.00  0.00     0.043 C 
ATOM     53  S   ASG d 306      21.747  30.981  43.634  0.00  0.00     0.252 S 
ATOM     54  O4  ASG d 306      21.045  32.007  44.622  0.00  0.00    -0.249 OA
ATOM     55  OSB ASG d 306      22.957  30.478  44.259  0.00  0.00    -0.572 OA
ATOM     56  OSA ASG d 306      20.843  29.875  43.372  0.00  0.00    -0.572 OA
ATOM     57  C3  ASG d 306      20.137  34.157  43.939  0.00  0.00    -0.014 C 
ATOM     58  C7  ASG d 306      21.958  36.747  45.956  0.00  0.00     0.214 C 
ATOM     59  N   ASG d 306      20.821  36.195  45.361  0.00  0.00    -0.352 N 
ATOM     60  C8  ASG d 306      22.020  38.246  45.808  0.00  0.00    -0.003 C 
ATOM     61  C2  ASG d 306      20.560  34.721  45.405  0.00  0.00     0.062 C 
ATOM     62  O5  ASG d 306      19.233  33.033  46.536  0.00  0.00    -0.349 OA
ATOM     63  O6  ASG d 306      17.538  30.875  46.634  0.00  0.00    -0.398 OA
ATOM     64  O7  ASG d 306      22.819  36.101  46.547  0.00  0.00    -0.274 OA
ATOM     65  OSC ASG d 306      22.075  31.645  42.393  0.00  0.00    -0.572 OA
ATOM     66  C5  ASG d 306      18.760  32.463  45.277  0.00  0.00     0.088 C 
ATOM     67  H   ASG d 306      18.611  34.948  46.184  0.00  0.00     0.132 H 
ATOM     68  H   ASG d 306      19.494  32.190  43.259  0.00  0.00     0.089 H 
ATOM     69  H   ASG d 306      19.359  30.492  45.785  0.00  0.00     0.078 H 
ATOM     70  H   ASG d 306      18.003  30.583  44.670  0.00  0.00     0.078 H 
ATOM     71  H   ASG d 306      19.264  34.660  43.579  0.00  0.00     0.040 H 
ATOM     72  H   ASG d 306      20.902  34.315  43.208  0.00  0.00     0.040 H 
ATOM     73  H   ASG d 306      20.180  36.785  44.904  0.00  0.00     0.163 HD
ATOM     74  H   ASG d 306      21.166  38.586  45.260  0.00  0.00     0.040 H 
ATOM     75  H   ASG d 306      22.912  38.517  45.283  0.00  0.00     0.040 H 
ATOM     76  H   ASG d 306      22.026  38.700  46.777  0.00  0.00     0.040 H 
ATOM     77  H   ASG d 306      21.455  34.199  45.674  0.00  0.00     0.080 H 
ATOM     78  H   ASG d 306      17.932  31.255  47.435  0.00  0.00     0.209 HD
ATOM     79  H   ASG d 306      17.882  32.963  44.924  0.00  0.00     0.090 H 
ATOM     80  C5  BDP d 305      19.148  36.225  49.519  0.00  0.00     0.152 C 
ATOM     81  O6B BDP d 305      17.012  36.697  48.666  0.00  0.00    -0.646 OA
ATOM     82  C6  BDP d 305      18.210  37.034  48.633  0.00  0.00     0.206 C 
ATOM     83  O4  BDP d 305      19.990  34.920  47.670  0.00  0.00    -0.348 OA
ATOM     84  O3  BDP d 305      20.751  32.795  49.398  0.00  0.00    -0.390 OA
ATOM     85  C2  BDP d 305      19.700  33.933  51.220  0.00  0.00     0.110 C 
ATOM     86  C1  BDP d 305      19.324  35.315  51.775  0.00  0.00     0.160 C 
ATOM     87  C4  BDP d 305      19.466  34.825  48.944  0.00  0.00     0.103 C 
ATOM     88  O6A BDP d 305      18.771  37.943  47.974  0.00  0.00    -0.646 OA
ATOM     89  C3  BDP d 305      20.428  34.094  49.900  0.00  0.00     0.092 C 
ATOM     90  O2  BDP d 305      20.519  33.265  52.184  0.00  0.00    -0.388 OA
ATOM     91  O5  BDP d 305      18.506  36.056  50.820  0.00  0.00    -0.340 OA
ATOM     92  H   BDP d 305      20.073  36.758  49.588  0.00  0.00     0.104 H 
ATOM     93  H   BDP d 305      21.357  32.353  50.014  0.00  0.00     0.210 HD
ATOM     94  H   BDP d 305      18.823  33.347  51.041  0.00  0.00     0.094 H 
ATOM     95  H   BDP d 305      20.231  35.855  51.951  0.00  0.00     0.133 H 
ATOM     96  H   BDP d 305      18.561  34.260  48.866  0.00  0.00     0.092 H 
ATOM     97  H   BDP d 305      21.335  34.652  50.003  0.00  0.00     0.091 H 
ATOM     98  H   BDP d 305      21.316  33.792  52.351  0.00  0.00     0.210 HD
ATOM     99  O6B BDP d 301       5.251  42.043  53.789  0.00  0.00    -0.646 OA
ATOM    100  C6  BDP d 301       4.744  41.002  54.262  0.00  0.00     0.206 C 
ATOM    101  O6A BDP d 301       5.041  40.367  55.298  0.00  0.00    -0.646 OA
ATOM    102  O5  BDP d 301       2.648  41.475  53.174  0.00  0.00    -0.340 OA
ATOM    103  C5  BDP d 301       3.589  40.416  53.461  0.00  0.00     0.152 C 
ATOM    104  C3  BDP d 301       2.769  39.215  51.420  0.00  0.00     0.092 C 
ATOM    105  C1  BDP d 301       1.485  41.018  52.417  0.00  0.00     0.156 C 
ATOM    106  O1  BDP d 301       0.585  42.217  52.240  0.00  0.00    -0.368 OA
ATOM    107  C4  BDP d 301       4.026  39.725  52.169  0.00  0.00     0.103 C 
ATOM    108  C2  BDP d 301       1.869  40.400  51.105  0.00  0.00     0.110 C 
ATOM    109  O2  BDP d 301       0.680  39.985  50.436  0.00  0.00    -0.388 OA
ATOM    110  O4  BDP d 301       4.751  38.628  52.593  0.00  0.00    -0.348 OA
ATOM    111  O3  BDP d 301       3.154  38.585  50.196  0.00  0.00    -0.390 OA
ATOM    112  H   BDP d 301       3.137  39.651  54.056  0.00  0.00     0.104 H 
ATOM    113  H   BDP d 301       2.253  38.507  52.035  0.00  0.00     0.091 H 
ATOM    114  H   BDP d 301       0.975  40.241  52.947  0.00  0.00     0.133 H 
ATOM    115  H   BDP d 301       1.062  42.911  51.759  0.00  0.00     0.212 HD
ATOM    116  H   BDP d 301       4.578  40.374  51.523  0.00  0.00     0.092 H 
ATOM    117  H   BDP d 301       2.387  41.085  50.467  0.00  0.00     0.094 H 
ATOM    118  H   BDP d 301       0.194  39.362  50.998  0.00  0.00     0.210 HD
ATOM    119  H   BDP d 301       3.623  39.225  49.637  0.00  0.00     0.210 HD
ATOM    120  OSC ASG d 304      18.884  33.573  57.203  0.00  0.00    -0.572 OA
ATOM    121  O3  ASG d 304      18.606  35.175  52.982  0.00  0.00    -0.348 OA
ATOM    122  C5  ASG d 304      15.846  32.697  53.659  0.00  0.00     0.090 C 
ATOM    123  C6  ASG d 304      15.656  31.477  54.526  0.00  0.00     0.043 C 
ATOM    124  O4  ASG d 304      17.479  33.685  55.161  0.00  0.00    -0.246 OA
ATOM    125  C7  ASG d 304      15.942  38.035  52.865  0.00  0.00     0.214 C 
ATOM    126  C8  ASG d 304      16.066  39.092  51.791  0.00  0.00    -0.003 C 
ATOM    127  S   ASG d 304      18.732  33.005  55.879  0.00  0.00     0.252 S 
ATOM    128  OSB ASG d 304      18.523  31.572  55.986  0.00  0.00    -0.572 OA
ATOM    129  N   ASG d 304      16.304  36.773  52.420  0.00  0.00    -0.349 N 
ATOM    130  C4  ASG d 304      17.256  33.320  53.790  0.00  0.00     0.114 C 
ATOM    131  C3  ASG d 304      17.327  34.568  52.886  0.00  0.00     0.094 C 
ATOM    132  C1  ASG d 304      14.896  34.879  53.204  0.00  0.00     0.154 C 
ATOM    133  O7  ASG d 304      15.560  38.282  53.998  0.00  0.00    -0.274 OA
ATOM    134  O6  ASG d 304      14.549  30.699  54.068  0.00  0.00    -0.398 OA
ATOM    135  O5  ASG d 304      14.829  33.677  54.027  0.00  0.00    -0.349 OA
ATOM    136  C2  ASG d 304      16.262  35.565  53.311  0.00  0.00     0.087 C 
ATOM    137  OSA ASG d 304      19.934  33.250  55.099  0.00  0.00    -0.572 OA
ATOM    138  H   ASG d 304      15.747  32.400  52.636  0.00  0.00     0.090 H 
ATOM    139  H   ASG d 304      15.474  31.787  55.533  0.00  0.00     0.078 H 
ATOM    140  H   ASG d 304      16.541  30.879  54.476  0.00  0.00     0.078 H 
ATOM    141  H   ASG d 304      16.418  38.642  50.886  0.00  0.00     0.040 H 
ATOM    142  H   ASG d 304      16.759  39.843  52.108  0.00  0.00     0.040 H 
ATOM    143  H   ASG d 304      15.110  39.540  51.618  0.00  0.00     0.040 H 
ATOM    144  H   ASG d 304      16.600  36.665  51.487  0.00  0.00     0.163 HD
ATOM    145  H   ASG d 304      18.007  32.621  53.489  0.00  0.00     0.093 H 
ATOM    146  H   ASG d 304      17.161  34.269  51.872  0.00  0.00     0.091 H 
ATOM    147  H   ASG d 304      14.752  34.599  52.181  0.00  0.00     0.132 H 
ATOM    148  H   ASG d 304      13.739  31.233  54.109  0.00  0.00     0.209 HD
ATOM    149  H   ASG d 304      16.435  35.885  54.317  0.00  0.00     0.084 H 
ENDROOT
TORSDOF 38
ENDMDL
MODEL 43
REMARK VINA RESULT:      -5.7      5.965     17.344
REMARK  0 active torsions:
REMARK  status: ('A' for Active; 'I' for Inactive)
REMARK       I    between atoms: C6_2  and  C5_74 
REMARK       I    between atoms: C1_3  and  O4_24 
REMARK       I    between atoms: O6_4  and  C6_26 
REMARK       I    between atoms: C5_5  and  C6_12 
REMARK       I    between atoms: C4_6  and  O4_22 
REMARK       I    between atoms: C6_8  and  C5_90 
REMARK       I    between atoms: C6_8  and  O6_83 
REMARK       I    between atoms: O3_11  and  C3_60 
REMARK       I    between atoms: O3_11  and  C1_29 
REMARK       I    between atoms: C5_13  and  C6_18 
REMARK       I    between atoms: O4_14  and  C4_88 
REMARK       I    between atoms: O4_14  and  S_15 
REMARK       I    between atoms: C6_16  and  C5_28 
REMARK       I    between atoms: S_17  and  O4_22 
REMARK       I    between atoms: C6_18  and  O6_66 
REMARK       I    between atoms: O4_20  and  C4_46 
REMARK       I    between atoms: O4_20  and  C1_61 
REMARK       I    between atoms: O4_21  and  C4_54 
REMARK       I    between atoms: O4_21  and  S_40 
REMARK       I    between atoms: O4_24  and  C4_35 
REMARK       I    between atoms: O3_25  and  C3_48 
REMARK       I    between atoms: C6_26  and  C5_50 
REMARK       I    between atoms: C2_27  and  O2_55 
REMARK       I    between atoms: O3_31  and  C3_37 
REMARK       I    between atoms: C2_32  and  N_72 
REMARK       I    between atoms: C7_33  and  C8_39 
REMARK       I    between atoms: C7_33  and  N_52 
REMARK       I    between atoms: C1_34  and  O4_86 
REMARK       I    between atoms: C3_36  and  O3_87 
REMARK       I    between atoms: C2_47  and  O2_85 
REMARK       I    between atoms: N_52  and  C2_71 
REMARK       I    between atoms: C3_53  and  O3_81 
REMARK       I    between atoms: C1_56  and  O3_81 
REMARK       I    between atoms: C7_57  and  C8_64 
REMARK       I    between atoms: C7_57  and  N_63 
REMARK       I    between atoms: C8_58  and  C7_73 
REMARK       I    between atoms: C1_59  and  O1_68 
REMARK       I    between atoms: N_63  and  C2_67 
REMARK       I    between atoms: C4_69  and  O4_86 
REMARK       I    between atoms: N_72  and  C7_73 
REMARK       I    between atoms: C2_77  and  O2_82 
ROOT
ATOM      1  OSB ASG d 302       4.460  39.382  51.568  0.00  0.00    -0.572 OA
ATOM      2  O6  ASG d 302       5.274  35.805  53.987  0.00  0.00    -0.398 OA
ATOM      3  O4  ASG d 302       2.895  37.592  50.840  0.00  0.00    -0.246 OA
ATOM      4  S   ASG d 302       3.566  39.003  50.491  0.00  0.00     0.252 S 
ATOM      5  C6  ASG d 302       4.732  36.588  52.927  0.00  0.00     0.043 C 
ATOM      6  C2  ASG d 302       1.521  35.153  50.475  0.00  0.00     0.087 C 
ATOM      7  C1  ASG d 302       1.838  34.552  51.836  0.00  0.00     0.154 C 
ATOM      8  O5  ASG d 302       2.674  35.426  52.629  0.00  0.00    -0.349 OA
ATOM      9  C5  ASG d 302       3.935  35.724  51.984  0.00  0.00     0.090 C 
ATOM     10  O7  ASG d 302      -1.009  35.700  49.213  0.00  0.00    -0.274 OA
ATOM     11  C3  ASG d 302       2.839  35.416  49.769  0.00  0.00     0.094 C 
ATOM     12  C8  ASG d 302      -1.187  33.469  48.343  0.00  0.00    -0.003 C 
ATOM     13  OSA ASG d 302       4.312  38.910  49.250  0.00  0.00    -0.572 OA
ATOM     14  N   ASG d 302       0.691  34.200  49.680  0.00  0.00    -0.349 N 
ATOM     15  C7  ASG d 302      -0.521  34.585  49.113  0.00  0.00     0.214 C 
ATOM     16  OSC ASG d 302       2.529  40.000  50.356  0.00  0.00    -0.572 OA
ATOM     17  O3  ASG d 302       2.551  36.016  48.558  0.00  0.00    -0.348 OA
ATOM     18  C4  ASG d 302       3.666  36.394  50.621  0.00  0.00     0.114 C 
ATOM     19  H   ASG d 302       5.783  36.375  54.583  0.00  0.00     0.209 HD
ATOM     20  H   ASG d 302       5.531  37.051  52.389  0.00  0.00     0.078 H 
ATOM     21  H   ASG d 302       4.086  37.332  53.344  0.00  0.00     0.078 H 
ATOM     22  H   ASG d 302       0.969  36.063  50.583  0.00  0.00     0.084 H 
ATOM     23  H   ASG d 302       2.360  33.634  51.667  0.00  0.00     0.132 H 
ATOM     24  H   ASG d 302       4.504  34.842  51.776  0.00  0.00     0.090 H 
ATOM     25  H   ASG d 302       3.385  34.507  49.625  0.00  0.00     0.091 H 
ATOM     26  H   ASG d 302      -2.110  33.820  47.931  0.00  0.00     0.040 H 
ATOM     27  H   ASG d 302      -1.380  32.647  49.001  0.00  0.00     0.040 H 
ATOM     28  H   ASG d 302      -0.544  33.148  47.551  0.00  0.00     0.040 H 
ATOM     29  H   ASG d 302       1.008  33.277  49.553  0.00  0.00     0.163 HD
ATOM     30  H   ASG d 302       4.584  36.638  50.128  0.00  0.00     0.093 H 
ATOM     31  C6  BDP d 303       6.593  34.661  46.563  0.00  0.00     0.206 C 
ATOM     32  O4  BDP d 303       5.137  34.643  43.973  0.00  0.00    -0.348 OA
ATOM     33  O3  BDP d 303       2.607  35.901  43.787  0.00  0.00    -0.390 OA
ATOM     34  C3  BDP d 303       3.076  35.262  44.986  0.00  0.00     0.092 C 
ATOM     35  O6B BDP d 303       7.153  35.760  46.379  0.00  0.00    -0.646 OA
ATOM     36  C4  BDP d 303       4.608  35.327  45.057  0.00  0.00     0.103 C 
ATOM     37  C2  BDP d 303       2.516  35.996  46.188  0.00  0.00     0.110 C 
ATOM     38  O6A BDP d 303       7.088  33.555  46.881  0.00  0.00    -0.646 OA
ATOM     39  C1  BDP d 303       3.029  35.331  47.455  0.00  0.00     0.160 C 
ATOM     40  C5  BDP d 303       5.078  34.645  46.370  0.00  0.00     0.152 C 
ATOM     41  O5  BDP d 303       4.481  35.332  47.505  0.00  0.00    -0.340 OA
ATOM     42  O2  BDP d 303       1.086  35.942  46.185  0.00  0.00    -0.388 OA
ATOM     43  H   BDP d 303       1.639  35.853  43.753  0.00  0.00     0.210 HD
ATOM     44  H   BDP d 303       2.757  34.240  44.980  0.00  0.00     0.091 H 
ATOM     45  H   BDP d 303       4.936  36.345  45.040  0.00  0.00     0.092 H 
ATOM     46  H   BDP d 303       2.827  37.019  46.149  0.00  0.00     0.094 H 
ATOM     47  H   BDP d 303       2.686  34.318  47.458  0.00  0.00     0.133 H 
ATOM     48  H   BDP d 303       4.770  33.622  46.304  0.00  0.00     0.104 H 
ATOM     49  H   BDP d 303       0.797  35.017  46.221  0.00  0.00     0.210 HD
ATOM     50  C1  ASG d 306      14.258  35.554  43.176  0.00  0.00     0.151 C 
ATOM     51  C4  ASG d 306      16.349  37.552  43.654  0.00  0.00     0.089 C 
ATOM     52  C6  ASG d 306      14.462  39.250  43.507  0.00  0.00     0.043 C 
ATOM     53  S   ASG d 306      17.916  38.733  41.983  0.00  0.00     0.252 S 
ATOM     54  O4  ASG d 306      16.682  37.780  42.284  0.00  0.00    -0.249 OA
ATOM     55  OSB ASG d 306      18.107  38.816  40.546  0.00  0.00    -0.572 OA
ATOM     56  OSA ASG d 306      17.638  40.056  42.511  0.00  0.00    -0.572 OA
ATOM     57  C3  ASG d 306      16.674  36.054  43.996  0.00  0.00    -0.014 C 
ATOM     58  C7  ASG d 306      16.006  32.818  42.213  0.00  0.00     0.214 C 
ATOM     59  N   ASG d 306      15.855  33.721  43.269  0.00  0.00    -0.352 N 
ATOM     60  C8  ASG d 306      16.129  31.391  42.683  0.00  0.00    -0.003 C 
ATOM     61  C2  ASG d 306      15.702  35.189  43.019  0.00  0.00     0.062 C 
ATOM     62  O5  ASG d 306      14.053  36.967  42.938  0.00  0.00    -0.349 OA
ATOM     63  O6  ASG d 306      13.050  39.442  43.579  0.00  0.00    -0.398 OA
ATOM     64  O7  ASG d 306      16.029  33.131  41.026  0.00  0.00    -0.274 OA
ATOM     65  OSC ASG d 306      19.107  38.200  42.607  0.00  0.00    -0.572 OA
ATOM     66  C5  ASG d 306      14.827  37.820  43.838  0.00  0.00     0.088 C 
ATOM     67  H   ASG d 306      13.943  35.345  44.176  0.00  0.00     0.132 H 
ATOM     68  H   ASG d 306      16.907  38.197  44.301  0.00  0.00     0.089 H 
ATOM     69  H   ASG d 306      14.797  39.478  42.516  0.00  0.00     0.078 H 
ATOM     70  H   ASG d 306      14.933  39.898  44.217  0.00  0.00     0.078 H 
ATOM     71  H   ASG d 306      16.458  35.845  45.023  0.00  0.00     0.040 H 
ATOM     72  H   ASG d 306      17.708  35.820  43.849  0.00  0.00     0.040 H 
ATOM     73  H   ASG d 306      15.850  33.385  44.194  0.00  0.00     0.163 HD
ATOM     74  H   ASG d 306      16.082  31.362  43.752  0.00  0.00     0.040 H 
ATOM     75  H   ASG d 306      17.064  30.987  42.356  0.00  0.00     0.040 H 
ATOM     76  H   ASG d 306      15.328  30.810  42.275  0.00  0.00     0.040 H 
ATOM     77  H   ASG d 306      16.006  35.424  42.020  0.00  0.00     0.080 H 
ATOM     78  H   ASG d 306      12.611  38.860  42.939  0.00  0.00     0.209 HD
ATOM     79  H   ASG d 306      14.603  37.614  44.864  0.00  0.00     0.090 H 
ATOM     80  C5  BDP d 305      11.488  33.490  42.285  0.00  0.00     0.152 C 
ATOM     81  O6B BDP d 305      10.954  33.702  44.561  0.00  0.00    -0.646 OA
ATOM     82  C6  BDP d 305      11.660  33.084  43.742  0.00  0.00     0.206 C 
ATOM     83  O4  BDP d 305      13.515  34.803  42.270  0.00  0.00    -0.348 OA
ATOM     84  O3  BDP d 305      12.581  36.386  40.101  0.00  0.00    -0.390 OA
ATOM     85  C2  BDP d 305      10.461  35.290  40.245  0.00  0.00     0.110 C 
ATOM     86  C1  BDP d 305       9.760  33.979  40.634  0.00  0.00     0.160 C 
ATOM     87  C4  BDP d 305      12.173  34.835  41.947  0.00  0.00     0.103 C 
ATOM     88  O6A BDP d 305      12.501  32.172  43.934  0.00  0.00    -0.646 OA
ATOM     89  C3  BDP d 305      11.956  35.150  40.454  0.00  0.00     0.092 C 
ATOM     90  O2  BDP d 305      10.155  35.579  38.879  0.00  0.00    -0.388 OA
ATOM     91  O5  BDP d 305      10.058  33.618  42.017  0.00  0.00    -0.340 OA
ATOM     92  H   BDP d 305      11.950  32.738  41.679  0.00  0.00     0.104 H 
ATOM     93  H   BDP d 305      12.433  36.565  39.159  0.00  0.00     0.210 HD
ATOM     94  H   BDP d 305      10.119  36.096  40.859  0.00  0.00     0.094 H 
ATOM     95  H   BDP d 305      10.123  33.209  39.986  0.00  0.00     0.133 H 
ATOM     96  H   BDP d 305      11.731  35.614  42.531  0.00  0.00     0.092 H 
ATOM     97  H   BDP d 305      12.378  34.373  39.852  0.00  0.00     0.091 H 
ATOM     98  H   BDP d 305      10.462  34.850  38.317  0.00  0.00     0.210 HD
ATOM     99  O6B BDP d 301      -0.095  30.775  52.466  0.00  0.00    -0.646 OA
ATOM    100  C6  BDP d 301      -0.750  31.827  52.296  0.00  0.00     0.206 C 
ATOM    101  O6A BDP d 301      -1.415  32.206  51.307  0.00  0.00    -0.646 OA
ATOM    102  O5  BDP d 301      -1.068  32.064  54.673  0.00  0.00    -0.340 OA
ATOM    103  C5  BDP d 301      -0.742  32.797  53.471  0.00  0.00     0.152 C 
ATOM    104  C3  BDP d 301       0.489  34.457  54.890  0.00  0.00     0.092 C 
ATOM    105  C1  BDP d 301      -1.103  32.905  55.866  0.00  0.00     0.156 C 
ATOM    106  O1  BDP d 301      -1.500  32.011  57.015  0.00  0.00    -0.368 OA
ATOM    107  C4  BDP d 301       0.583  33.541  53.643  0.00  0.00     0.103 C 
ATOM    108  C2  BDP d 301       0.206  33.596  56.112  0.00  0.00     0.110 C 
ATOM    109  O2  BDP d 301       0.083  34.391  57.289  0.00  0.00    -0.388 OA
ATOM    110  O4  BDP d 301       0.675  34.345  52.523  0.00  0.00    -0.348 OA
ATOM    111  O3  BDP d 301       1.726  35.145  55.083  0.00  0.00    -0.390 OA
ATOM    112  H   BDP d 301      -1.471  33.554  53.271  0.00  0.00     0.104 H 
ATOM    113  H   BDP d 301      -0.295  35.171  54.747  0.00  0.00     0.091 H 
ATOM    114  H   BDP d 301      -1.812  33.697  55.745  0.00  0.00     0.133 H 
ATOM    115  H   BDP d 301      -0.848  31.299  57.111  0.00  0.00     0.212 HD
ATOM    116  H   BDP d 301       1.414  32.878  53.758  0.00  0.00     0.092 H 
ATOM    117  H   BDP d 301       1.010  32.906  56.259  0.00  0.00     0.094 H 
ATOM    118  H   BDP d 301      -0.642  35.025  57.177  0.00  0.00     0.210 HD
ATOM    119  H   BDP d 301       2.439  34.499  55.212  0.00  0.00     0.210 HD
ATOM    120  OSC ASG d 304       5.098  34.945  37.468  0.00  0.00    -0.572 OA
ATOM    121  O3  ASG d 304       8.363  34.113  40.486  0.00  0.00    -0.348 OA
ATOM    122  C5  ASG d 304       6.283  37.074  41.546  0.00  0.00     0.090 C 
ATOM    123  C6  ASG d 304       5.491  38.159  40.859  0.00  0.00     0.043 C 
ATOM    124  O4  ASG d 304       5.965  35.496  39.727  0.00  0.00    -0.246 OA
ATOM    125  C7  ASG d 304       6.870  32.063  43.464  0.00  0.00     0.214 C 
ATOM    126  C8  ASG d 304       7.799  31.182  44.268  0.00  0.00    -0.003 C 
ATOM    127  S   ASG d 304       6.108  35.724  38.154  0.00  0.00     0.252 S 
ATOM    128  OSB ASG d 304       5.933  37.132  37.841  0.00  0.00    -0.572 OA
ATOM    129  N   ASG d 304       7.471  33.247  43.060  0.00  0.00    -0.349 N 
ATOM    130  C4  ASG d 304       6.969  36.105  40.554  0.00  0.00     0.114 C 
ATOM    131  C3  ASG d 304       7.723  35.029  41.361  0.00  0.00     0.094 C 
ATOM    132  C1  ASG d 304       6.064  35.294  43.174  0.00  0.00     0.154 C 
ATOM    133  O7  ASG d 304       5.718  31.754  43.207  0.00  0.00    -0.274 OA
ATOM    134  O6  ASG d 304       5.250  39.250  41.750  0.00  0.00    -0.398 OA
ATOM    135  O5  ASG d 304       5.378  36.337  42.421  0.00  0.00    -0.349 OA
ATOM    136  C2  ASG d 304       6.743  34.279  42.249  0.00  0.00     0.087 C 
ATOM    137  OSA ASG d 304       7.431  35.304  37.719  0.00  0.00    -0.572 OA
ATOM    138  H   ASG d 304       7.071  37.536  42.102  0.00  0.00     0.090 H 
ATOM    139  H   ASG d 304       4.554  37.758  40.534  0.00  0.00     0.078 H 
ATOM    140  H   ASG d 304       6.052  38.517  40.021  0.00  0.00     0.078 H 
ATOM    141  H   ASG d 304       8.752  31.659  44.363  0.00  0.00     0.040 H 
ATOM    142  H   ASG d 304       7.918  30.243  43.771  0.00  0.00     0.040 H 
ATOM    143  H   ASG d 304       7.383  31.020  45.241  0.00  0.00     0.040 H 
ATOM    144  H   ASG d 304       8.407  33.415  43.314  0.00  0.00     0.163 HD
ATOM    145  H   ASG d 304       7.661  36.631  39.930  0.00  0.00     0.093 H 
ATOM    146  H   ASG d 304       8.465  35.508  41.965  0.00  0.00     0.091 H 
ATOM    147  H   ASG d 304       6.827  35.750  43.771  0.00  0.00     0.132 H 
ATOM    148  H   ASG d 304       4.741  38.936  42.515  0.00  0.00     0.209 HD
ATOM    149  H   ASG d 304       6.010  33.780  41.650  0.00  0.00     0.084 H 
ENDROOT
TORSDOF 38
ENDMDL
MODEL 44
REMARK VINA RESULT:      -5.7      7.686     17.353
REMARK  0 active torsions:
REMARK  status: ('A' for Active; 'I' for Inactive)
REMARK       I    between atoms: C6_2  and  C5_74 
REMARK       I    between atoms: C1_3  and  O4_24 
REMARK       I    between atoms: O6_4  and  C6_26 
REMARK       I    between atoms: C5_5  and  C6_12 
REMARK       I    between atoms: C4_6  and  O4_22 
REMARK       I    between atoms: C6_8  and  C5_90 
REMARK       I    between atoms: C6_8  and  O6_83 
REMARK       I    between atoms: O3_11  and  C3_60 
REMARK       I    between atoms: O3_11  and  C1_29 
REMARK       I    between atoms: C5_13  and  C6_18 
REMARK       I    between atoms: O4_14  and  C4_88 
REMARK       I    between atoms: O4_14  and  S_15 
REMARK       I    between atoms: C6_16  and  C5_28 
REMARK       I    between atoms: S_17  and  O4_22 
REMARK       I    between atoms: C6_18  and  O6_66 
REMARK       I    between atoms: O4_20  and  C4_46 
REMARK       I    between atoms: O4_20  and  C1_61 
REMARK       I    between atoms: O4_21  and  C4_54 
REMARK       I    between atoms: O4_21  and  S_40 
REMARK       I    between atoms: O4_24  and  C4_35 
REMARK       I    between atoms: O3_25  and  C3_48 
REMARK       I    between atoms: C6_26  and  C5_50 
REMARK       I    between atoms: C2_27  and  O2_55 
REMARK       I    between atoms: O3_31  and  C3_37 
REMARK       I    between atoms: C2_32  and  N_72 
REMARK       I    between atoms: C7_33  and  C8_39 
REMARK       I    between atoms: C7_33  and  N_52 
REMARK       I    between atoms: C1_34  and  O4_86 
REMARK       I    between atoms: C3_36  and  O3_87 
REMARK       I    between atoms: C2_47  and  O2_85 
REMARK       I    between atoms: N_52  and  C2_71 
REMARK       I    between atoms: C3_53  and  O3_81 
REMARK       I    between atoms: C1_56  and  O3_81 
REMARK       I    between atoms: C7_57  and  C8_64 
REMARK       I    between atoms: C7_57  and  N_63 
REMARK       I    between atoms: C8_58  and  C7_73 
REMARK       I    between atoms: C1_59  and  O1_68 
REMARK       I    between atoms: N_63  and  C2_67 
REMARK       I    between atoms: C4_69  and  O4_86 
REMARK       I    between atoms: N_72  and  C7_73 
REMARK       I    between atoms: C2_77  and  O2_82 
ROOT
ATOM      1  OSB ASG d 302       5.402  39.259  50.868  0.00  0.00    -0.572 OA
ATOM      2  O6  ASG d 302       7.786  35.943  52.491  0.00  0.00    -0.398 OA
ATOM      3  O4  ASG d 302       4.056  37.177  50.671  0.00  0.00    -0.246 OA
ATOM      4  S   ASG d 302       4.245  38.696  50.199  0.00  0.00     0.252 S 
ATOM      5  C6  ASG d 302       6.727  36.590  51.791  0.00  0.00     0.043 C 
ATOM      6  C2  ASG d 302       3.150  34.504  50.682  0.00  0.00     0.087 C 
ATOM      7  C1  ASG d 302       4.092  33.990  51.760  0.00  0.00     0.154 C 
ATOM      8  O5  ASG d 302       4.988  35.023  52.229  0.00  0.00    -0.349 OA
ATOM      9  C5  ASG d 302       5.804  35.574  51.169  0.00  0.00     0.090 C 
ATOM     10  O7  ASG d 302       0.273  34.503  50.554  0.00  0.00    -0.274 OA
ATOM     11  C3  ASG d 302       4.000  35.032  49.541  0.00  0.00     0.094 C 
ATOM     12  C8  ASG d 302       0.199  32.280  49.651  0.00  0.00    -0.003 C 
ATOM     13  OSA ASG d 302       4.438  38.754  48.762  0.00  0.00    -0.572 OA
ATOM     14  N   ASG d 302       2.273  33.394  50.202  0.00  0.00    -0.349 N 
ATOM     15  C7  ASG d 302       0.886  33.514  50.185  0.00  0.00     0.214 C 
ATOM     16  OSC ASG d 302       3.068  39.454  50.557  0.00  0.00    -0.572 OA
ATOM     17  O3  ASG d 302       3.144  35.552  48.589  0.00  0.00    -0.348 OA
ATOM     18  C4  ASG d 302       4.891  36.166  50.076  0.00  0.00     0.114 C 
ATOM     19  H   ASG d 302       8.369  36.611  52.884  0.00  0.00     0.209 HD
ATOM     20  H   ASG d 302       7.140  37.208  51.021  0.00  0.00     0.078 H 
ATOM     21  H   ASG d 302       6.169  37.185  52.483  0.00  0.00     0.078 H 
ATOM     22  H   ASG d 302       2.522  35.279  51.067  0.00  0.00     0.084 H 
ATOM     23  H   ASG d 302       4.670  33.199  51.330  0.00  0.00     0.132 H 
ATOM     24  H   ASG d 302       6.402  34.829  50.688  0.00  0.00     0.090 H 
ATOM     25  H   ASG d 302       4.609  34.256  49.125  0.00  0.00     0.091 H 
ATOM     26  H   ASG d 302      -0.860  32.429  49.661  0.00  0.00     0.040 H 
ATOM     27  H   ASG d 302       0.446  31.439  50.265  0.00  0.00     0.040 H 
ATOM     28  H   ASG d 302       0.523  32.096  48.648  0.00  0.00     0.040 H 
ATOM     29  H   ASG d 302       2.686  32.556  49.889  0.00  0.00     0.163 HD
ATOM     30  H   ASG d 302       5.471  36.593  49.285  0.00  0.00     0.093 H 
ATOM     31  C6  BDP d 303       6.238  35.059  45.076  0.00  0.00     0.206 C 
ATOM     32  O4  BDP d 303       3.905  34.723  43.266  0.00  0.00    -0.348 OA
ATOM     33  O3  BDP d 303       1.319  35.425  44.181  0.00  0.00    -0.390 OA
ATOM     34  C3  BDP d 303       2.340  34.904  45.048  0.00  0.00     0.092 C 
ATOM     35  O6B BDP d 303       6.454  36.250  44.775  0.00  0.00    -0.646 OA
ATOM     36  C4  BDP d 303       3.730  35.288  44.521  0.00  0.00     0.103 C 
ATOM     37  C2  BDP d 303       2.174  35.512  46.427  0.00  0.00     0.110 C 
ATOM     38  O6A BDP d 303       7.022  34.082  45.088  0.00  0.00    -0.646 OA
ATOM     39  C1  BDP d 303       3.267  34.975  47.337  0.00  0.00     0.160 C 
ATOM     40  C5  BDP d 303       4.806  34.726  45.489  0.00  0.00     0.152 C 
ATOM     41  O5  BDP d 303       4.588  35.280  46.816  0.00  0.00    -0.340 OA
ATOM     42  O2  BDP d 303       0.900  35.161  46.977  0.00  0.00    -0.388 OA
ATOM     43  H   BDP d 303       0.447  35.176  44.523  0.00  0.00     0.210 HD
ATOM     44  H   BDP d 303       2.250  33.838  45.087  0.00  0.00     0.091 H 
ATOM     45  H   BDP d 303       3.819  36.352  44.456  0.00  0.00     0.092 H 
ATOM     46  H   BDP d 303       2.240  36.577  46.349  0.00  0.00     0.094 H 
ATOM     47  H   BDP d 303       3.157  33.913  47.395  0.00  0.00     0.133 H 
ATOM     48  H   BDP d 303       4.701  33.661  45.468  0.00  0.00     0.104 H 
ATOM     49  H   BDP d 303       0.835  34.196  47.051  0.00  0.00     0.210 HD
ATOM     50  C1  ASG d 306      11.592  37.513  39.048  0.00  0.00     0.151 C 
ATOM     51  C4  ASG d 306      13.271  39.906  38.827  0.00  0.00     0.089 C 
ATOM     52  C6  ASG d 306      11.191  41.172  39.560  0.00  0.00     0.043 C 
ATOM     53  S   ASG d 306      13.783  41.378  36.775  0.00  0.00     0.252 S 
ATOM     54  O4  ASG d 306      12.980  40.191  37.458  0.00  0.00    -0.249 OA
ATOM     55  OSB ASG d 306      13.367  41.491  35.388  0.00  0.00    -0.572 OA
ATOM     56  OSA ASG d 306      13.488  42.617  37.471  0.00  0.00    -0.572 OA
ATOM     57  C3  ASG d 306      13.988  38.510  38.897  0.00  0.00    -0.014 C 
ATOM     58  C7  ASG d 306      13.306  35.196  37.269  0.00  0.00     0.214 C 
ATOM     59  N   ASG d 306      13.416  36.053  38.367  0.00  0.00    -0.352 N 
ATOM     60  C8  ASG d 306      13.880  33.828  37.541  0.00  0.00    -0.003 C 
ATOM     61  C2  ASG d 306      12.896  37.456  38.313  0.00  0.00     0.062 C 
ATOM     62  O5  ASG d 306      11.040  38.851  39.020  0.00  0.00    -0.349 OA
ATOM     63  O6  ASG d 306       9.916  41.065  40.193  0.00  0.00    -0.398 OA
ATOM     64  O7  ASG d 306      12.794  35.501  36.196  0.00  0.00    -0.274 OA
ATOM     65  OSC ASG d 306      15.202  41.109  36.841  0.00  0.00    -0.572 OA
ATOM     66  C5  ASG d 306      11.927  39.851  39.610  0.00  0.00     0.088 C 
ATOM     67  H   ASG d 306      11.748  37.248  40.072  0.00  0.00     0.132 H 
ATOM     68  H   ASG d 306      13.904  40.657  39.253  0.00  0.00     0.089 H 
ATOM     69  H   ASG d 306      11.053  41.459  38.538  0.00  0.00     0.078 H 
ATOM     70  H   ASG d 306      11.770  41.907  40.079  0.00  0.00     0.078 H 
ATOM     71  H   ASG d 306      14.244  38.267  39.907  0.00  0.00     0.040 H 
ATOM     72  H   ASG d 306      14.902  38.496  38.341  0.00  0.00     0.040 H 
ATOM     73  H   ASG d 306      13.844  35.729  39.193  0.00  0.00     0.163 HD
ATOM     74  H   ASG d 306      14.269  33.797  38.538  0.00  0.00     0.040 H 
ATOM     75  H   ASG d 306      14.667  33.627  36.845  0.00  0.00     0.040 H 
ATOM     76  H   ASG d 306      13.112  33.091  37.434  0.00  0.00     0.040 H 
ATOM     77  H   ASG d 306      12.725  37.743  37.296  0.00  0.00     0.080 H 
ATOM     78  H   ASG d 306       9.381  40.400  39.731  0.00  0.00     0.209 HD
ATOM     79  H   ASG d 306      12.174  39.609  40.623  0.00  0.00     0.090 H 
ATOM     80  C5  BDP d 305       9.153  34.912  39.150  0.00  0.00     0.152 C 
ATOM     81  O6B BDP d 305       9.539  35.020  41.463  0.00  0.00    -0.646 OA
ATOM     82  C6  BDP d 305       9.965  34.558  40.388  0.00  0.00     0.206 C 
ATOM     83  O4  BDP d 305      10.710  36.618  38.448  0.00  0.00    -0.348 OA
ATOM     84  O3  BDP d 305       8.704  37.959  36.946  0.00  0.00    -0.390 OA
ATOM     85  C2  BDP d 305       7.072  36.446  37.820  0.00  0.00     0.110 C 
ATOM     86  C1  BDP d 305       6.852  35.020  38.348  0.00  0.00     0.160 C 
ATOM     87  C4  BDP d 305       9.372  36.368  38.678  0.00  0.00     0.103 C 
ATOM     88  O6A BDP d 305      10.972  33.843  40.165  0.00  0.00    -0.646 OA
ATOM     89  C3  BDP d 305       8.524  36.622  37.417  0.00  0.00     0.092 C 
ATOM     90  O2  BDP d 305       6.198  36.657  36.708  0.00  0.00    -0.388 OA
ATOM     91  O5  BDP d 305       7.739  34.737  39.472  0.00  0.00    -0.340 OA
ATOM     92  H   BDP d 305       9.472  34.269  38.356  0.00  0.00     0.104 H 
ATOM     93  H   BDP d 305       8.162  38.099  36.153  0.00  0.00     0.210 HD
ATOM     94  H   BDP d 305       6.853  37.167  38.579  0.00  0.00     0.094 H 
ATOM     95  H   BDP d 305       7.069  34.339  37.552  0.00  0.00     0.133 H 
ATOM     96  H   BDP d 305       9.058  37.041  39.447  0.00  0.00     0.092 H 
ATOM     97  H   BDP d 305       8.813  35.947  36.640  0.00  0.00     0.091 H 
ATOM     98  H   BDP d 305       6.392  36.005  36.016  0.00  0.00     0.210 HD
ATOM     99  O6B BDP d 301       3.340  29.896  52.797  0.00  0.00    -0.646 OA
ATOM    100  C6  BDP d 301       2.481  30.788  52.979  0.00  0.00     0.206 C 
ATOM    101  O6A BDP d 301       1.418  31.013  52.361  0.00  0.00    -0.646 OA
ATOM    102  O5  BDP d 301       3.095  30.966  55.302  0.00  0.00    -0.340 OA
ATOM    103  C5  BDP d 301       2.768  31.745  54.129  0.00  0.00     0.152 C 
ATOM    104  C3  BDP d 301       4.115  33.632  55.080  0.00  0.00     0.092 C 
ATOM    105  C1  BDP d 301       3.375  31.788  56.476  0.00  0.00     0.156 C 
ATOM    106  O1  BDP d 301       3.650  30.837  57.615  0.00  0.00    -0.368 OA
ATOM    107  C4  BDP d 301       3.880  32.749  53.829  0.00  0.00     0.103 C 
ATOM    108  C2  BDP d 301       4.513  32.738  56.245  0.00  0.00     0.110 C 
ATOM    109  O2  BDP d 301       4.718  33.496  57.435  0.00  0.00    -0.388 OA
ATOM    110  O4  BDP d 301       3.362  33.548  52.828  0.00  0.00    -0.348 OA
ATOM    111  O3  BDP d 301       5.168  34.564  54.829  0.00  0.00    -0.390 OA
ATOM    112  H   BDP d 301       1.888  32.331  54.290  0.00  0.00     0.104 H 
ATOM    113  H   BDP d 301       3.217  34.166  55.311  0.00  0.00     0.091 H 
ATOM    114  H   BDP d 301       2.538  32.414  56.703  0.00  0.00     0.133 H 
ATOM    115  H   BDP d 301       4.410  30.277  57.394  0.00  0.00     0.212 HD
ATOM    116  H   BDP d 301       4.800  32.275  53.558  0.00  0.00     0.092 H 
ATOM    117  H   BDP d 301       5.427  32.232  56.013  0.00  0.00     0.094 H 
ATOM    118  H   BDP d 301       3.900  33.965  57.664  0.00  0.00     0.210 HD
ATOM    119  H   BDP d 301       5.984  34.082  54.619  0.00  0.00     0.210 HD
ATOM    120  OSC ASG d 304       1.224  34.974  37.337  0.00  0.00    -0.572 OA
ATOM    121  O3  ASG d 304       5.514  34.859  38.768  0.00  0.00    -0.348 OA
ATOM    122  C5  ASG d 304       3.497  37.326  40.782  0.00  0.00     0.090 C 
ATOM    123  C6  ASG d 304       2.303  38.219  40.546  0.00  0.00     0.043 C 
ATOM    124  O4  ASG d 304       2.794  35.706  39.114  0.00  0.00    -0.246 OA
ATOM    125  C7  ASG d 304       5.757  32.559  41.922  0.00  0.00     0.214 C 
ATOM    126  C8  ASG d 304       7.080  31.895  42.229  0.00  0.00    -0.003 C 
ATOM    127  S   ASG d 304       2.253  35.951  37.633  0.00  0.00     0.252 S 
ATOM    128  OSB ASG d 304       1.699  37.289  37.524  0.00  0.00    -0.572 OA
ATOM    129  N   ASG d 304       5.905  33.839  41.409  0.00  0.00    -0.349 N 
ATOM    130  C4  ASG d 304       3.905  36.516  39.529  0.00  0.00     0.114 C 
ATOM    131  C3  ASG d 304       5.111  35.625  39.891  0.00  0.00     0.094 C 
ATOM    132  C1  ASG d 304       4.293  35.549  42.222  0.00  0.00     0.154 C 
ATOM    133  O7  ASG d 304       4.681  32.015  42.112  0.00  0.00    -0.274 OA
ATOM    134  O6  ASG d 304       2.231  39.240  41.542  0.00  0.00    -0.398 OA
ATOM    135  O5  ASG d 304       3.176  36.422  41.880  0.00  0.00    -0.349 OA
ATOM    136  C2  ASG d 304       4.730  34.693  41.029  0.00  0.00     0.087 C 
ATOM    137  OSA ASG d 304       3.347  35.814  36.685  0.00  0.00    -0.572 OA
ATOM    138  H   ASG d 304       4.336  37.946  41.021  0.00  0.00     0.090 H 
ATOM    139  H   ASG d 304       1.412  37.629  40.582  0.00  0.00     0.078 H 
ATOM    140  H   ASG d 304       2.404  38.681  39.586  0.00  0.00     0.078 H 
ATOM    141  H   ASG d 304       7.880  32.562  41.981  0.00  0.00     0.040 H 
ATOM    142  H   ASG d 304       7.171  30.999  41.653  0.00  0.00     0.040 H 
ATOM    143  H   ASG d 304       7.125  31.655  43.271  0.00  0.00     0.040 H 
ATOM    144  H   ASG d 304       6.813  34.200  41.290  0.00  0.00     0.163 HD
ATOM    145  H   ASG d 304       4.176  37.171  38.727  0.00  0.00     0.093 H 
ATOM    146  H   ASG d 304       5.924  36.252  40.193  0.00  0.00     0.091 H 
ATOM    147  H   ASG d 304       5.126  36.157  42.508  0.00  0.00     0.132 H 
ATOM    148  H   ASG d 304       2.139  38.831  42.417  0.00  0.00     0.209 HD
ATOM    149  H   ASG d 304       3.932  34.048  40.727  0.00  0.00     0.084 H 
ENDROOT
TORSDOF 38
ENDMDL
MODEL 45
REMARK VINA RESULT:      -5.6      3.977     15.252
REMARK  0 active torsions:
REMARK  status: ('A' for Active; 'I' for Inactive)
REMARK       I    between atoms: C6_2  and  C5_74 
REMARK       I    between atoms: C1_3  and  O4_24 
REMARK       I    between atoms: O6_4  and  C6_26 
REMARK       I    between atoms: C5_5  and  C6_12 
REMARK       I    between atoms: C4_6  and  O4_22 
REMARK       I    between atoms: C6_8  and  C5_90 
REMARK       I    between atoms: C6_8  and  O6_83 
REMARK       I    between atoms: O3_11  and  C3_60 
REMARK       I    between atoms: O3_11  and  C1_29 
REMARK       I    between atoms: C5_13  and  C6_18 
REMARK       I    between atoms: O4_14  and  C4_88 
REMARK       I    between atoms: O4_14  and  S_15 
REMARK       I    between atoms: C6_16  and  C5_28 
REMARK       I    between atoms: S_17  and  O4_22 
REMARK       I    between atoms: C6_18  and  O6_66 
REMARK       I    between atoms: O4_20  and  C4_46 
REMARK       I    between atoms: O4_20  and  C1_61 
REMARK       I    between atoms: O4_21  and  C4_54 
REMARK       I    between atoms: O4_21  and  S_40 
REMARK       I    between atoms: O4_24  and  C4_35 
REMARK       I    between atoms: O3_25  and  C3_48 
REMARK       I    between atoms: C6_26  and  C5_50 
REMARK       I    between atoms: C2_27  and  O2_55 
REMARK       I    between atoms: O3_31  and  C3_37 
REMARK       I    between atoms: C2_32  and  N_72 
REMARK       I    between atoms: C7_33  and  C8_39 
REMARK       I    between atoms: C7_33  and  N_52 
REMARK       I    between atoms: C1_34  and  O4_86 
REMARK       I    between atoms: C3_36  and  O3_87 
REMARK       I    between atoms: C2_47  and  O2_85 
REMARK       I    between atoms: N_52  and  C2_71 
REMARK       I    between atoms: C3_53  and  O3_81 
REMARK       I    between atoms: C1_56  and  O3_81 
REMARK       I    between atoms: C7_57  and  C8_64 
REMARK       I    between atoms: C7_57  and  N_63 
REMARK       I    between atoms: C8_58  and  C7_73 
REMARK       I    between atoms: C1_59  and  O1_68 
REMARK       I    between atoms: N_63  and  C2_67 
REMARK       I    between atoms: C4_69  and  O4_86 
REMARK       I    between atoms: N_72  and  C7_73 
REMARK       I    between atoms: C2_77  and  O2_82 
ROOT
ATOM      1  OSB ASG d 302       3.972  34.303  49.484  0.00  0.00    -0.572 OA
ATOM      2  O6  ASG d 302       3.757  38.476  48.122  0.00  0.00    -0.398 OA
ATOM      3  O4  ASG d 302       4.126  35.772  51.485  0.00  0.00    -0.246 OA
ATOM      4  S   ASG d 302       4.354  34.306  50.883  0.00  0.00     0.252 S 
ATOM      5  C6  ASG d 302       3.981  37.387  49.013  0.00  0.00     0.043 C 
ATOM      6  C2  ASG d 302       4.322  37.969  53.247  0.00  0.00     0.087 C 
ATOM      7  C1  ASG d 302       3.685  39.003  52.331  0.00  0.00     0.154 C 
ATOM      8  O5  ASG d 302       3.329  38.439  51.048  0.00  0.00    -0.349 OA
ATOM      9  C5  ASG d 302       4.469  37.886  50.349  0.00  0.00     0.090 C 
ATOM     10  O7  ASG d 302       3.580  37.100  55.891  0.00  0.00    -0.274 OA
ATOM     11  C3  ASG d 302       5.552  37.424  52.543  0.00  0.00     0.094 C 
ATOM     12  C8  ASG d 302       4.802  38.880  56.943  0.00  0.00    -0.003 C 
ATOM     13  OSA ASG d 302       5.748  33.924  51.008  0.00  0.00    -0.572 OA
ATOM     14  N   ASG d 302       4.708  38.605  54.542  0.00  0.00    -0.349 N 
ATOM     15  C7  ASG d 302       4.287  38.088  55.764  0.00  0.00     0.214 C 
ATOM     16  OSC ASG d 302       3.530  33.364  51.607  0.00  0.00    -0.572 OA
ATOM     17  O3  ASG d 302       6.094  36.443  53.351  0.00  0.00    -0.348 OA
ATOM     18  C4  ASG d 302       5.114  36.785  51.215  0.00  0.00     0.114 C 
ATOM     19  H   ASG d 302       3.445  38.137  47.269  0.00  0.00     0.209 HD
ATOM     20  H   ASG d 302       4.716  36.733  48.592  0.00  0.00     0.078 H 
ATOM     21  H   ASG d 302       3.058  36.863  49.156  0.00  0.00     0.078 H 
ATOM     22  H   ASG d 302       3.634  37.177  53.459  0.00  0.00     0.084 H 
ATOM     23  H   ASG d 302       4.403  39.782  52.180  0.00  0.00     0.132 H 
ATOM     24  H   ASG d 302       5.232  38.615  50.175  0.00  0.00     0.090 H 
ATOM     25  H   ASG d 302       6.262  38.202  52.356  0.00  0.00     0.091 H 
ATOM     26  H   ASG d 302       4.449  38.438  57.851  0.00  0.00     0.040 H 
ATOM     27  H   ASG d 302       4.450  39.888  56.876  0.00  0.00     0.040 H 
ATOM     28  H   ASG d 302       5.872  38.874  56.937  0.00  0.00     0.040 H 
ATOM     29  H   ASG d 302       5.274  39.411  54.531  0.00  0.00     0.163 HD
ATOM     30  H   ASG d 302       5.953  36.348  50.714  0.00  0.00     0.093 H 
ATOM     31  C6  BDP d 303      10.402  36.853  51.497  0.00  0.00     0.206 C 
ATOM     32  O4  BDP d 303      11.459  36.000  54.139  0.00  0.00    -0.348 OA
ATOM     33  O3  BDP d 303       9.702  34.850  56.039  0.00  0.00    -0.390 OA
ATOM     34  C3  BDP d 303       9.288  35.857  55.101  0.00  0.00     0.092 C 
ATOM     35  O6B BDP d 303      10.536  35.741  50.948  0.00  0.00    -0.646 OA
ATOM     36  C4  BDP d 303      10.130  35.767  53.820  0.00  0.00     0.103 C 
ATOM     37  C2  BDP d 303       7.837  35.620  54.730  0.00  0.00     0.110 C 
ATOM     38  O6A BDP d 303      10.799  37.981  51.125  0.00  0.00    -0.646 OA
ATOM     39  C1  BDP d 303       7.407  36.673  53.722  0.00  0.00     0.160 C 
ATOM     40  C5  BDP d 303       9.645  36.854  52.824  0.00  0.00     0.152 C 
ATOM     41  O5  BDP d 303       8.237  36.638  52.530  0.00  0.00    -0.340 OA
ATOM     42  O2  BDP d 303       7.003  35.720  55.888  0.00  0.00    -0.388 OA
ATOM     43  H   BDP d 303       9.164  34.918  56.843  0.00  0.00     0.210 HD
ATOM     44  H   BDP d 303       9.415  36.820  55.549  0.00  0.00     0.091 H 
ATOM     45  H   BDP d 303      10.027  34.797  53.378  0.00  0.00     0.092 H 
ATOM     46  H   BDP d 303       7.740  34.639  54.312  0.00  0.00     0.094 H 
ATOM     47  H   BDP d 303       7.510  37.633  54.183  0.00  0.00     0.133 H 
ATOM     48  H   BDP d 303       9.823  37.796  53.299  0.00  0.00     0.104 H 
ATOM     49  H   BDP d 303       7.086  36.608  56.271  0.00  0.00     0.210 HD
ATOM     50  C1  ASG d 306      17.216  34.537  47.113  0.00  0.00     0.151 C 
ATOM     51  C4  ASG d 306      17.498  32.767  44.793  0.00  0.00     0.089 C 
ATOM     52  C6  ASG d 306      15.962  31.197  46.074  0.00  0.00     0.043 C 
ATOM     53  S   ASG d 306      19.312  31.014  44.268  0.00  0.00     0.252 S 
ATOM     54  O4  ASG d 306      18.644  32.054  45.263  0.00  0.00    -0.249 OA
ATOM     55  OSB ASG d 306      20.467  30.417  44.916  0.00  0.00    -0.572 OA
ATOM     56  OSA ASG d 306      18.350  29.976  43.944  0.00  0.00    -0.572 OA
ATOM     57  C3  ASG d 306      17.897  34.276  44.617  0.00  0.00    -0.014 C 
ATOM     58  C7  ASG d 306      19.810  36.687  46.767  0.00  0.00     0.214 C 
ATOM     59  N   ASG d 306      18.661  36.226  46.120  0.00  0.00    -0.352 N 
ATOM     60  C8  ASG d 306      19.972  38.183  46.666  0.00  0.00    -0.003 C 
ATOM     61  C2  ASG d 306      18.306  34.771  46.112  0.00  0.00     0.062 C 
ATOM     62  O5  ASG d 306      16.838  33.141  47.149  0.00  0.00    -0.349 OA
ATOM     63  O6  ASG d 306      15.007  31.094  47.129  0.00  0.00    -0.398 OA
ATOM     64  O7  ASG d 306      20.609  35.971  47.365  0.00  0.00    -0.274 OA
ATOM     65  OSC ASG d 306      19.723  31.690  43.058  0.00  0.00    -0.572 OA
ATOM     66  C5  ASG d 306      16.372  32.637  45.859  0.00  0.00     0.088 C 
ATOM     67  H   ASG d 306      16.350  35.101  46.835  0.00  0.00     0.132 H 
ATOM     68  H   ASG d 306      17.155  32.375  43.858  0.00  0.00     0.089 H 
ATOM     69  H   ASG d 306      16.828  30.619  46.326  0.00  0.00     0.078 H 
ATOM     70  H   ASG d 306      15.518  30.828  45.173  0.00  0.00     0.078 H 
ATOM     71  H   ASG d 306      17.070  34.844  44.245  0.00  0.00     0.040 H 
ATOM     72  H   ASG d 306      18.694  34.405  43.915  0.00  0.00     0.040 H 
ATOM     73  H   ASG d 306      18.074  36.869  45.661  0.00  0.00     0.163 HD
ATOM     74  H   ASG d 306      19.160  38.592  46.102  0.00  0.00     0.040 H 
ATOM     75  H   ASG d 306      20.896  38.410  46.178  0.00  0.00     0.040 H 
ATOM     76  H   ASG d 306      19.974  38.608  47.648  0.00  0.00     0.040 H 
ATOM     77  H   ASG d 306      19.156  34.185  46.392  0.00  0.00     0.080 H 
ATOM     78  H   ASG d 306      15.398  31.426  47.953  0.00  0.00     0.209 HD
ATOM     79  H   ASG d 306      15.540  33.203  45.494  0.00  0.00     0.090 H 
ATOM     80  C5  BDP d 305      16.855  36.247  50.222  0.00  0.00     0.152 C 
ATOM     81  O6B BDP d 305      14.783  36.879  49.317  0.00  0.00    -0.646 OA
ATOM     82  C6  BDP d 305      16.001  37.139  49.332  0.00  0.00     0.206 C 
ATOM     83  O4  BDP d 305      17.674  34.943  48.363  0.00  0.00    -0.348 OA
ATOM     84  O3  BDP d 305      18.242  32.727  50.050  0.00  0.00    -0.390 OA
ATOM     85  C2  BDP d 305      17.204  33.878  51.870  0.00  0.00     0.110 C 
ATOM     86  C1  BDP d 305      16.898  35.265  52.454  0.00  0.00     0.160 C 
ATOM     87  C4  BDP d 305      17.103  34.847  49.616  0.00  0.00     0.103 C 
ATOM     88  O6A BDP d 305      16.639  38.029  48.718  0.00  0.00    -0.646 OA
ATOM     89  C3  BDP d 305      17.985  34.029  50.579  0.00  0.00     0.092 C 
ATOM     90  O2  BDP d 305      17.946  33.132  52.839  0.00  0.00    -0.388 OA
ATOM     91  O5  BDP d 305      16.161  36.084  51.497  0.00  0.00    -0.340 OA
ATOM     92  H   BDP d 305      17.809  36.717  50.336  0.00  0.00     0.104 H 
ATOM     93  H   BDP d 305      18.797  32.229  50.670  0.00  0.00     0.210 HD
ATOM     94  H   BDP d 305      16.299  33.355  51.646  0.00  0.00     0.094 H 
ATOM     95  H   BDP d 305      17.831  35.741  52.675  0.00  0.00     0.133 H 
ATOM     96  H   BDP d 305      16.168  34.343  49.492  0.00  0.00     0.092 H 
ATOM     97  H   BDP d 305      18.921  34.525  50.728  0.00  0.00     0.091 H 
ATOM     98  H   BDP d 305      18.769  33.602  53.047  0.00  0.00     0.210 HD
ATOM     99  O6B BDP d 301       3.219  42.823  54.224  0.00  0.00    -0.646 OA
ATOM    100  C6  BDP d 301       2.632  41.804  54.650  0.00  0.00     0.206 C 
ATOM    101  O6A BDP d 301       2.853  41.123  55.675  0.00  0.00    -0.646 OA
ATOM    102  O5  BDP d 301       0.607  42.441  53.511  0.00  0.00    -0.340 OA
ATOM    103  C5  BDP d 301       1.469  41.316  53.796  0.00  0.00     0.152 C 
ATOM    104  C3  BDP d 301       0.644  40.228  51.695  0.00  0.00     0.092 C 
ATOM    105  C1  BDP d 301      -0.556  42.081  52.704  0.00  0.00     0.156 C 
ATOM    106  O1  BDP d 301      -1.372  43.340  52.535  0.00  0.00    -0.368 OA
ATOM    107  C4  BDP d 301       1.905  40.635  52.498  0.00  0.00     0.103 C 
ATOM    108  C2  BDP d 301      -0.169  41.476  51.387  0.00  0.00     0.110 C 
ATOM    109  O2  BDP d 301      -1.358  41.158  50.669  0.00  0.00    -0.388 OA
ATOM    110  O4  BDP d 301       2.545  39.483  52.911  0.00  0.00    -0.348 OA
ATOM    111  O3  BDP d 301       1.029  39.609  50.465  0.00  0.00    -0.390 OA
ATOM    112  H   BDP d 301       0.950  40.565  54.353  0.00  0.00     0.104 H 
ATOM    113  H   BDP d 301       0.064  39.538  52.271  0.00  0.00     0.091 H 
ATOM    114  H   BDP d 301      -1.131  41.324  53.194  0.00  0.00     0.133 H 
ATOM    115  H   BDP d 301      -0.836  44.015  52.091  0.00  0.00     0.212 HD
ATOM    116  H   BDP d 301       2.518  41.266  51.890  0.00  0.00     0.092 H 
ATOM    117  H   BDP d 301       0.413  42.144  50.787  0.00  0.00     0.094 H 
ATOM    118  H   BDP d 301      -1.902  40.551  51.196  0.00  0.00     0.210 HD
ATOM    119  H   BDP d 301       1.556  40.233  49.941  0.00  0.00     0.210 HD
ATOM    120  OSC ASG d 304      16.168  33.404  57.812  0.00  0.00    -0.572 OA
ATOM    121  O3  ASG d 304      16.133  35.138  53.634  0.00  0.00    -0.348 OA
ATOM    122  C5  ASG d 304      13.201  32.825  54.148  0.00  0.00     0.090 C 
ATOM    123  C6  ASG d 304      12.905  31.595  54.972  0.00  0.00     0.043 C 
ATOM    124  O4  ASG d 304      14.842  33.663  55.731  0.00  0.00    -0.246 OA
ATOM    125  C7  ASG d 304      13.660  38.166  53.519  0.00  0.00     0.214 C 
ATOM    126  C8  ASG d 304      13.887  39.241  52.481  0.00  0.00    -0.003 C 
ATOM    127  S   ASG d 304      16.024  32.884  56.467  0.00  0.00     0.252 S 
ATOM    128  OSB ASG d 304      15.722  31.465  56.524  0.00  0.00    -0.572 OA
ATOM    129  N   ASG d 304      13.957  36.895  53.047  0.00  0.00    -0.349 N 
ATOM    130  C4  ASG d 304      14.641  33.352  54.343  0.00  0.00     0.114 C 
ATOM    131  C3  ASG d 304      14.822  34.617  53.479  0.00  0.00     0.094 C 
ATOM    132  C1  ASG d 304      12.406  35.075  53.729  0.00  0.00     0.154 C 
ATOM    133  O7  ASG d 304      13.257  38.404  54.645  0.00  0.00    -0.274 OA
ATOM    134  O6  ASG d 304      11.767  30.903  54.456  0.00  0.00    -0.398 OA
ATOM    135  O5  ASG d 304      12.236  33.857  54.513  0.00  0.00    -0.349 OA
ATOM    136  C2  ASG d 304      13.808  35.668  53.900  0.00  0.00     0.087 C 
ATOM    137  OSA ASG d 304      17.265  33.074  55.732  0.00  0.00    -0.572 OA
ATOM    138  H   ASG d 304      13.117  32.563  53.115  0.00  0.00     0.090 H 
ATOM    139  H   ASG d 304      12.709  31.888  55.982  0.00  0.00     0.078 H 
ATOM    140  H   ASG d 304      13.752  30.943  54.932  0.00  0.00     0.078 H 
ATOM    141  H   ASG d 304      14.240  38.795  51.575  0.00  0.00     0.040 H 
ATOM    142  H   ASG d 304      14.614  39.937  52.842  0.00  0.00     0.040 H 
ATOM    143  H   ASG d 304      12.967  39.754  52.292  0.00  0.00     0.040 H 
ATOM    144  H   ASG d 304      14.276  36.795  52.121  0.00  0.00     0.163 HD
ATOM    145  H   ASG d 304      15.357  32.614  54.045  0.00  0.00     0.093 H 
ATOM    146  H   ASG d 304      14.671  34.358  52.452  0.00  0.00     0.091 H 
ATOM    147  H   ASG d 304      12.279  34.833  52.694  0.00  0.00     0.132 H 
ATOM    148  H   ASG d 304      10.992  31.486  54.488  0.00  0.00     0.209 HD
ATOM    149  H   ASG d 304      13.967  35.948  54.920  0.00  0.00     0.084 H 
ENDROOT
TORSDOF 38
ENDMDL
MODEL 46
REMARK VINA RESULT:      -5.5      3.000      4.610
REMARK  0 active torsions:
REMARK  status: ('A' for Active; 'I' for Inactive)
REMARK       I    between atoms: C6_2  and  C5_74 
REMARK       I    between atoms: C1_3  and  O4_24 
REMARK       I    between atoms: O6_4  and  C6_26 
REMARK       I    between atoms: C5_5  and  C6_12 
REMARK       I    between atoms: C4_6  and  O4_22 
REMARK       I    between atoms: C6_8  and  C5_90 
REMARK       I    between atoms: C6_8  and  O6_83 
REMARK       I    between atoms: O3_11  and  C3_60 
REMARK       I    between atoms: O3_11  and  C1_29 
REMARK       I    between atoms: C5_13  and  C6_18 
REMARK       I    between atoms: O4_14  and  C4_88 
REMARK       I    between atoms: O4_14  and  S_15 
REMARK       I    between atoms: C6_16  and  C5_28 
REMARK       I    between atoms: S_17  and  O4_22 
REMARK       I    between atoms: C6_18  and  O6_66 
REMARK       I    between atoms: O4_20  and  C4_46 
REMARK       I    between atoms: O4_20  and  C1_61 
REMARK       I    between atoms: O4_21  and  C4_54 
REMARK       I    between atoms: O4_21  and  S_40 
REMARK       I    between atoms: O4_24  and  C4_35 
REMARK       I    between atoms: O3_25  and  C3_48 
REMARK       I    between atoms: C6_26  and  C5_50 
REMARK       I    between atoms: C2_27  and  O2_55 
REMARK       I    between atoms: O3_31  and  C3_37 
REMARK       I    between atoms: C2_32  and  N_72 
REMARK       I    between atoms: C7_33  and  C8_39 
REMARK       I    between atoms: C7_33  and  N_52 
REMARK       I    between atoms: C1_34  and  O4_86 
REMARK       I    between atoms: C3_36  and  O3_87 
REMARK       I    between atoms: C2_47  and  O2_85 
REMARK       I    between atoms: N_52  and  C2_71 
REMARK       I    between atoms: C3_53  and  O3_81 
REMARK       I    between atoms: C1_56  and  O3_81 
REMARK       I    between atoms: C7_57  and  C8_64 
REMARK       I    between atoms: C7_57  and  N_63 
REMARK       I    between atoms: C8_58  and  C7_73 
REMARK       I    between atoms: C1_59  and  O1_68 
REMARK       I    between atoms: N_63  and  C2_67 
REMARK       I    between atoms: C4_69  and  O4_86 
REMARK       I    between atoms: N_72  and  C7_73 
REMARK       I    between atoms: C2_77  and  O2_82 
ROOT
ATOM      1  OSB ASG d 302      16.319  40.733  47.442  0.00  0.00    -0.572 OA
ATOM      2  O6  ASG d 302      17.377  38.881  43.599  0.00  0.00    -0.398 OA
ATOM      3  O4  ASG d 302      17.749  38.753  47.912  0.00  0.00    -0.246 OA
ATOM      4  S   ASG d 302      16.719  39.828  48.502  0.00  0.00     0.252 S 
ATOM      5  C6  ASG d 302      17.237  39.006  45.011  0.00  0.00     0.043 C 
ATOM      6  C2  ASG d 302      19.301  36.402  47.723  0.00  0.00     0.087 C 
ATOM      7  C1  ASG d 302      19.730  36.577  46.273  0.00  0.00     0.154 C 
ATOM      8  O5  ASG d 302      19.156  37.764  45.680  0.00  0.00    -0.349 OA
ATOM      9  C5  ASG d 302      17.710  37.753  45.704  0.00  0.00     0.090 C 
ATOM     10  O7  ASG d 302      20.871  36.137  50.122  0.00  0.00    -0.274 OA
ATOM     11  C3  ASG d 302      17.785  36.334  47.748  0.00  0.00     0.094 C 
ATOM     12  C8  ASG d 302      21.111  33.765  49.840  0.00  0.00    -0.003 C 
ATOM     13  OSA ASG d 302      15.549  39.159  49.039  0.00  0.00    -0.572 OA
ATOM     14  N   ASG d 302      19.884  35.145  48.278  0.00  0.00    -0.349 N 
ATOM     15  C7  ASG d 302      20.628  35.144  49.455  0.00  0.00     0.214 C 
ATOM     16  OSC ASG d 302      17.369  40.579  49.553  0.00  0.00    -0.572 OA
ATOM     17  O3  ASG d 302      17.394  36.236  49.070  0.00  0.00    -0.348 OA
ATOM     18  C4  ASG d 302      17.223  37.640  47.163  0.00  0.00     0.114 C 
ATOM     19  H   ASG d 302      17.069  39.694  43.171  0.00  0.00     0.209 HD
ATOM     20  H   ASG d 302      16.208  39.172  45.250  0.00  0.00     0.078 H 
ATOM     21  H   ASG d 302      17.832  39.830  45.346  0.00  0.00     0.078 H 
ATOM     22  H   ASG d 302      19.646  37.221  48.320  0.00  0.00     0.084 H 
ATOM     23  H   ASG d 302      19.387  35.720  45.733  0.00  0.00     0.132 H 
ATOM     24  H   ASG d 302      17.301  36.911  45.187  0.00  0.00     0.090 H 
ATOM     25  H   ASG d 302      17.429  35.499  47.181  0.00  0.00     0.091 H 
ATOM     26  H   ASG d 302      21.673  33.824  50.748  0.00  0.00     0.040 H 
ATOM     27  H   ASG d 302      21.732  33.374  49.060  0.00  0.00     0.040 H 
ATOM     28  H   ASG d 302      20.270  33.119  49.983  0.00  0.00     0.040 H 
ATOM     29  H   ASG d 302      19.740  34.297  47.801  0.00  0.00     0.163 HD
ATOM     30  H   ASG d 302      16.154  37.644  47.210  0.00  0.00     0.093 H 
ATOM     31  C6  BDP d 303      13.260  34.237  48.033  0.00  0.00     0.206 C 
ATOM     32  O4  BDP d 303      13.431  32.866  50.663  0.00  0.00    -0.348 OA
ATOM     33  O3  BDP d 303      15.318  33.754  52.578  0.00  0.00    -0.390 OA
ATOM     34  C3  BDP d 303      15.552  33.820  51.162  0.00  0.00     0.092 C 
ATOM     35  O6B BDP d 303      12.463  35.121  48.408  0.00  0.00    -0.646 OA
ATOM     36  C4  BDP d 303      14.222  33.977  50.411  0.00  0.00     0.103 C 
ATOM     37  C2  BDP d 303      16.411  35.032  50.860  0.00  0.00     0.110 C 
ATOM     38  O6A BDP d 303      13.189  33.461  47.053  0.00  0.00    -0.646 OA
ATOM     39  C1  BDP d 303      16.640  35.111  49.359  0.00  0.00     0.160 C 
ATOM     40  C5  BDP d 303      14.513  34.063  48.889  0.00  0.00     0.152 C 
ATOM     41  O5  BDP d 303      15.385  35.199  48.634  0.00  0.00    -0.340 OA
ATOM     42  O2  BDP d 303      17.677  34.922  51.516  0.00  0.00    -0.388 OA
ATOM     43  H   BDP d 303      16.164  33.654  53.041  0.00  0.00     0.210 HD
ATOM     44  H   BDP d 303      16.039  32.919  50.850  0.00  0.00     0.091 H 
ATOM     45  H   BDP d 303      13.717  34.863  50.736  0.00  0.00     0.092 H 
ATOM     46  H   BDP d 303      15.910  35.911  51.210  0.00  0.00     0.094 H 
ATOM     47  H   BDP d 303      17.151  34.222  49.056  0.00  0.00     0.133 H 
ATOM     48  H   BDP d 303      14.965  33.132  48.617  0.00  0.00     0.104 H 
ATOM     49  H   BDP d 303      18.137  34.128  51.202  0.00  0.00     0.210 HD
ATOM     50  C1  ASG d 306       4.881  33.644  47.353  0.00  0.00     0.151 C 
ATOM     51  C4  ASG d 306       2.838  35.700  46.915  0.00  0.00     0.089 C 
ATOM     52  C6  ASG d 306       4.086  37.015  48.699  0.00  0.00     0.043 C 
ATOM     53  S   ASG d 306       0.500  35.953  47.969  0.00  0.00     0.252 S 
ATOM     54  O4  ASG d 306       1.910  35.227  47.892  0.00  0.00    -0.249 OA
ATOM     55  OSB ASG d 306      -0.303  35.315  48.997  0.00  0.00    -0.572 OA
ATOM     56  OSA ASG d 306       0.700  37.350  48.309  0.00  0.00    -0.572 OA
ATOM     57  C3  ASG d 306       3.007  34.588  45.818  0.00  0.00    -0.014 C 
ATOM     58  C7  ASG d 306       3.492  30.870  45.996  0.00  0.00     0.214 C 
ATOM     59  N   ASG d 306       3.893  32.172  45.686  0.00  0.00    -0.352 N 
ATOM     60  C8  ASG d 306       3.878  29.875  44.930  0.00  0.00    -0.003 C 
ATOM     61  C2  ASG d 306       3.619  33.311  46.618  0.00  0.00     0.062 C 
ATOM     62  O5  ASG d 306       4.669  34.739  48.275  0.00  0.00    -0.349 OA
ATOM     63  O6  ASG d 306       5.319  37.157  49.402  0.00  0.00    -0.398 OA
ATOM     64  O7  ASG d 306       2.897  30.549  47.020  0.00  0.00    -0.274 OA
ATOM     65  OSC ASG d 306      -0.170  35.855  46.692  0.00  0.00    -0.572 OA
ATOM     66  C5  ASG d 306       4.201  35.958  47.622  0.00  0.00     0.088 C 
ATOM     67  H   ASG d 306       5.631  33.949  46.654  0.00  0.00     0.132 H 
ATOM     68  H   ASG d 306       2.493  36.605  46.459  0.00  0.00     0.089 H 
ATOM     69  H   ASG d 306       3.319  36.731  49.389  0.00  0.00     0.078 H 
ATOM     70  H   ASG d 306       3.845  37.950  48.238  0.00  0.00     0.078 H 
ATOM     71  H   ASG d 306       3.681  34.912  45.053  0.00  0.00     0.040 H 
ATOM     72  H   ASG d 306       2.083  34.357  45.331  0.00  0.00     0.040 H 
ATOM     73  H   ASG d 306       4.365  32.344  44.839  0.00  0.00     0.163 HD
ATOM     74  H   ASG d 306       4.384  30.383  44.135  0.00  0.00     0.040 H 
ATOM     75  H   ASG d 306       2.998  29.402  44.547  0.00  0.00     0.040 H 
ATOM     76  H   ASG d 306       4.526  29.135  45.351  0.00  0.00     0.040 H 
ATOM     77  H   ASG d 306       2.874  33.028  47.333  0.00  0.00     0.080 H 
ATOM     78  H   ASG d 306       5.550  36.315  49.825  0.00  0.00     0.209 HD
ATOM     79  H   ASG d 306       4.881  36.284  46.862  0.00  0.00     0.090 H 
ATOM     80  C5  BDP d 305       7.357  31.295  48.392  0.00  0.00     0.152 C 
ATOM     81  O6B BDP d 305       8.761  32.594  47.030  0.00  0.00    -0.646 OA
ATOM     82  C6  BDP d 305       7.916  31.679  47.029  0.00  0.00     0.206 C 
ATOM     83  O4  BDP d 305       5.299  32.510  48.043  0.00  0.00    -0.348 OA
ATOM     84  O3  BDP d 305       4.863  32.755  50.841  0.00  0.00    -0.390 OA
ATOM     85  C2  BDP d 305       7.014  31.789  51.236  0.00  0.00     0.110 C 
ATOM     86  C1  BDP d 305       8.066  30.820  50.677  0.00  0.00     0.160 C 
ATOM     87  C4  BDP d 305       6.334  32.319  48.937  0.00  0.00     0.103 C 
ATOM     88  O6A BDP d 305       7.446  31.022  46.068  0.00  0.00    -0.646 OA
ATOM     89  C3  BDP d 305       5.818  31.836  50.306  0.00  0.00     0.092 C 
ATOM     90  O2  BDP d 305       6.637  31.343  52.542  0.00  0.00    -0.388 OA
ATOM     91  O5  BDP d 305       8.473  31.211  49.330  0.00  0.00    -0.340 OA
ATOM     92  H   BDP d 305       6.845  30.362  48.284  0.00  0.00     0.104 H 
ATOM     93  H   BDP d 305       4.552  32.434  51.702  0.00  0.00     0.210 HD
ATOM     94  H   BDP d 305       7.413  32.779  51.307  0.00  0.00     0.094 H 
ATOM     95  H   BDP d 305       7.627  29.845  50.639  0.00  0.00     0.133 H 
ATOM     96  H   BDP d 305       6.813  33.266  49.063  0.00  0.00     0.092 H 
ATOM     97  H   BDP d 305       5.348  30.881  50.203  0.00  0.00     0.091 H 
ATOM     98  H   BDP d 305       6.275  30.445  52.485  0.00  0.00     0.210 HD
ATOM     99  O6B BDP d 301      22.475  33.542  44.988  0.00  0.00    -0.646 OA
ATOM    100  C6  BDP d 301      22.762  34.339  45.908  0.00  0.00     0.206 C 
ATOM    101  O6A BDP d 301      22.845  34.144  47.140  0.00  0.00    -0.646 OA
ATOM    102  O5  BDP d 301      24.015  35.718  44.380  0.00  0.00    -0.340 OA
ATOM    103  C5  BDP d 301      23.061  35.766  45.465  0.00  0.00     0.152 C 
ATOM    104  C3  BDP d 301      22.249  37.963  44.574  0.00  0.00     0.092 C 
ATOM    105  C1  BDP d 301      24.387  37.040  43.884  0.00  0.00     0.156 C 
ATOM    106  O1  BDP d 301      25.413  36.824  42.799  0.00  0.00    -0.368 OA
ATOM    107  C4  BDP d 301      21.818  36.551  45.047  0.00  0.00     0.103 C 
ATOM    108  C2  BDP d 301      23.200  37.817  43.395  0.00  0.00     0.110 C 
ATOM    109  O2  BDP d 301      23.651  39.088  42.932  0.00  0.00    -0.388 OA
ATOM    110  O4  BDP d 301      21.091  36.691  46.214  0.00  0.00    -0.348 OA
ATOM    111  O3  BDP d 301      21.103  38.707  44.156  0.00  0.00    -0.390 OA
ATOM    112  H   BDP d 301      23.462  36.289  46.307  0.00  0.00     0.104 H 
ATOM    113  H   BDP d 301      22.730  38.476  45.380  0.00  0.00     0.091 H 
ATOM    114  H   BDP d 301      24.795  37.635  44.674  0.00  0.00     0.133 H 
ATOM    115  H   BDP d 301      25.027  36.284  42.092  0.00  0.00     0.212 HD
ATOM    116  H   BDP d 301      21.273  36.071  44.263  0.00  0.00     0.092 H 
ATOM    117  H   BDP d 301      22.697  37.328  42.587  0.00  0.00     0.094 H 
ATOM    118  H   BDP d 301      24.110  39.549  43.651  0.00  0.00     0.210 HD
ATOM    119  H   BDP d 301      20.664  38.243  43.425  0.00  0.00     0.210 HD
ATOM    120  OSC ASG d 304      10.607  29.875  55.711  0.00  0.00    -0.572 OA
ATOM    121  O3  ASG d 304       9.204  30.802  51.512  0.00  0.00    -0.348 OA
ATOM    122  C5  ASG d 304      10.881  33.805  53.057  0.00  0.00     0.090 C 
ATOM    123  C6  ASG d 304      11.060  34.367  54.446  0.00  0.00     0.043 C 
ATOM    124  O4  ASG d 304      10.703  31.517  53.853  0.00  0.00    -0.246 OA
ATOM    125  C7  ASG d 304      12.217  30.453  49.043  0.00  0.00     0.214 C 
ATOM    126  C8  ASG d 304      11.927  30.133  47.594  0.00  0.00    -0.003 C 
ATOM    127  S   ASG d 304       9.853  30.935  55.073  0.00  0.00     0.252 S 
ATOM    128  OSB ASG d 304       9.584  31.988  56.035  0.00  0.00    -0.572 OA
ATOM    129  N   ASG d 304      11.272  31.301  49.604  0.00  0.00    -0.349 N 
ATOM    130  C4  ASG d 304      10.051  32.500  53.034  0.00  0.00     0.114 C 
ATOM    131  C3  ASG d 304       9.955  32.004  51.577  0.00  0.00     0.094 C 
ATOM    132  C1  ASG d 304      12.139  33.069  51.122  0.00  0.00     0.154 C 
ATOM    133  O7  ASG d 304      13.183  30.009  49.641  0.00  0.00    -0.274 OA
ATOM    134  O6  ASG d 304      11.431  35.745  54.390  0.00  0.00    -0.398 OA
ATOM    135  O5  ASG d 304      12.204  33.566  52.491  0.00  0.00    -0.349 OA
ATOM    136  C2  ASG d 304      11.352  31.758  51.031  0.00  0.00     0.087 C 
ATOM    137  OSA ASG d 304       8.590  30.410  54.580  0.00  0.00    -0.572 OA
ATOM    138  H   ASG d 304      10.332  34.516  52.477  0.00  0.00     0.090 H 
ATOM    139  H   ASG d 304      11.826  33.818  54.951  0.00  0.00     0.078 H 
ATOM    140  H   ASG d 304      10.133  34.282  54.974  0.00  0.00     0.078 H 
ATOM    141  H   ASG d 304      11.032  30.633  47.289  0.00  0.00     0.040 H 
ATOM    142  H   ASG d 304      11.801  29.076  47.481  0.00  0.00     0.040 H 
ATOM    143  H   ASG d 304      12.744  30.461  46.986  0.00  0.00     0.040 H 
ATOM    144  H   ASG d 304      10.524  31.613  49.045  0.00  0.00     0.163 HD
ATOM    145  H   ASG d 304       9.066  32.672  53.416  0.00  0.00     0.093 H 
ATOM    146  H   ASG d 304       9.464  32.752  50.990  0.00  0.00     0.091 H 
ATOM    147  H   ASG d 304      11.631  33.795  50.520  0.00  0.00     0.132 H 
ATOM    148  H   ASG d 304      12.272  35.835  53.913  0.00  0.00     0.209 HD
ATOM    149  H   ASG d 304      11.841  30.995  51.600  0.00  0.00     0.084 H 
ENDROOT
TORSDOF 38
ENDMDL
MODEL 47
REMARK VINA RESULT:      -5.5      7.939     13.570
REMARK  0 active torsions:
REMARK  status: ('A' for Active; 'I' for Inactive)
REMARK       I    between atoms: C6_2  and  C5_74 
REMARK       I    between atoms: C1_3  and  O4_24 
REMARK       I    between atoms: O6_4  and  C6_26 
REMARK       I    between atoms: C5_5  and  C6_12 
REMARK       I    between atoms: C4_6  and  O4_22 
REMARK       I    between atoms: C6_8  and  C5_90 
REMARK       I    between atoms: C6_8  and  O6_83 
REMARK       I    between atoms: O3_11  and  C3_60 
REMARK       I    between atoms: O3_11  and  C1_29 
REMARK       I    between atoms: C5_13  and  C6_18 
REMARK       I    between atoms: O4_14  and  C4_88 
REMARK       I    between atoms: O4_14  and  S_15 
REMARK       I    between atoms: C6_16  and  C5_28 
REMARK       I    between atoms: S_17  and  O4_22 
REMARK       I    between atoms: C6_18  and  O6_66 
REMARK       I    between atoms: O4_20  and  C4_46 
REMARK       I    between atoms: O4_20  and  C1_61 
REMARK       I    between atoms: O4_21  and  C4_54 
REMARK       I    between atoms: O4_21  and  S_40 
REMARK       I    between atoms: O4_24  and  C4_35 
REMARK       I    between atoms: O3_25  and  C3_48 
REMARK       I    between atoms: C6_26  and  C5_50 
REMARK       I    between atoms: C2_27  and  O2_55 
REMARK       I    between atoms: O3_31  and  C3_37 
REMARK       I    between atoms: C2_32  and  N_72 
REMARK       I    between atoms: C7_33  and  C8_39 
REMARK       I    between atoms: C7_33  and  N_52 
REMARK       I    between atoms: C1_34  and  O4_86 
REMARK       I    between atoms: C3_36  and  O3_87 
REMARK       I    between atoms: C2_47  and  O2_85 
REMARK       I    between atoms: N_52  and  C2_71 
REMARK       I    between atoms: C3_53  and  O3_81 
REMARK       I    between atoms: C1_56  and  O3_81 
REMARK       I    between atoms: C7_57  and  C8_64 
REMARK       I    between atoms: C7_57  and  N_63 
REMARK       I    between atoms: C8_58  and  C7_73 
REMARK       I    between atoms: C1_59  and  O1_68 
REMARK       I    between atoms: N_63  and  C2_67 
REMARK       I    between atoms: C4_69  and  O4_86 
REMARK       I    between atoms: N_72  and  C7_73 
REMARK       I    between atoms: C2_77  and  O2_82 
ROOT
ATOM      1  OSB ASG d 302       9.750  39.902  52.175  0.00  0.00    -0.572 OA
ATOM      2  O6  ASG d 302      13.807  38.297  51.649  0.00  0.00    -0.398 OA
ATOM      3  O4  ASG d 302       9.783  37.587  53.083  0.00  0.00    -0.246 OA
ATOM      4  S   ASG d 302       8.883  38.811  52.576  0.00  0.00     0.252 S 
ATOM      5  C6  ASG d 302      12.409  38.290  51.921  0.00  0.00     0.043 C 
ATOM      6  C2  ASG d 302      10.497  34.960  53.830  0.00  0.00     0.087 C 
ATOM      7  C1  ASG d 302      12.001  35.186  53.897  0.00  0.00     0.154 C 
ATOM      8  O5  ASG d 302      12.359  36.539  53.535  0.00  0.00    -0.349 OA
ATOM      9  C5  ASG d 302      11.929  36.889  52.198  0.00  0.00     0.090 C 
ATOM     10  O7  ASG d 302       8.651  34.037  55.837  0.00  0.00    -0.274 OA
ATOM     11  C3  ASG d 302      10.048  35.271  52.414  0.00  0.00     0.094 C 
ATOM     12  C8  ASG d 302       9.085  31.729  55.340  0.00  0.00    -0.003 C 
ATOM     13  OSA ASG d 302       8.066  38.400  51.449  0.00  0.00    -0.572 OA
ATOM     14  N   ASG d 302      10.180  33.542  54.173  0.00  0.00    -0.349 N 
ATOM     15  C7  ASG d 302       9.261  33.219  55.167  0.00  0.00     0.214 C 
ATOM     16  OSC ASG d 302       8.029  39.250  53.656  0.00  0.00    -0.572 OA
ATOM     17  O3  ASG d 302       8.675  35.123  52.370  0.00  0.00    -0.348 OA
ATOM     18  C4  ASG d 302      10.398  36.735  52.097  0.00  0.00     0.114 C 
ATOM     19  H   ASG d 302      14.098  39.205  51.473  0.00  0.00     0.209 HD
ATOM     20  H   ASG d 302      11.884  38.681  51.075  0.00  0.00     0.078 H 
ATOM     21  H   ASG d 302      12.222  38.896  52.784  0.00  0.00     0.078 H 
ATOM     22  H   ASG d 302       9.989  35.592  54.528  0.00  0.00     0.084 H 
ATOM     23  H   ASG d 302      12.457  34.510  53.205  0.00  0.00     0.132 H 
ATOM     24  H   ASG d 302      12.344  36.240  51.456  0.00  0.00     0.090 H 
ATOM     25  H   ASG d 302      10.525  34.622  51.709  0.00  0.00     0.091 H 
ATOM     26  H   ASG d 302       8.371  31.541  56.113  0.00  0.00     0.040 H 
ATOM     27  H   ASG d 302      10.023  31.287  55.605  0.00  0.00     0.040 H 
ATOM     28  H   ASG d 302       8.737  31.302  54.422  0.00  0.00     0.040 H 
ATOM     29  H   ASG d 302      10.632  32.817  53.683  0.00  0.00     0.163 HD
ATOM     30  H   ASG d 302      10.051  37.001  51.120  0.00  0.00     0.093 H 
ATOM     31  C6  BDP d 303       8.586  34.357  47.726  0.00  0.00     0.206 C 
ATOM     32  O4  BDP d 303       6.168  32.695  48.196  0.00  0.00    -0.348 OA
ATOM     33  O3  BDP d 303       4.828  32.857  50.685  0.00  0.00    -0.390 OA
ATOM     34  C3  BDP d 303       6.249  33.023  50.550  0.00  0.00     0.092 C 
ATOM     35  O6B BDP d 303       7.966  35.363  47.326  0.00  0.00    -0.646 OA
ATOM     36  C4  BDP d 303       6.587  33.594  49.166  0.00  0.00     0.103 C 
ATOM     37  C2  BDP d 303       6.731  34.008  51.597  0.00  0.00     0.110 C 
ATOM     38  O6A BDP d 303       9.537  33.741  47.193  0.00  0.00    -0.646 OA
ATOM     39  C1  BDP d 303       8.231  34.199  51.440  0.00  0.00     0.160 C 
ATOM     40  C5  BDP d 303       8.125  33.777  49.062  0.00  0.00     0.152 C 
ATOM     41  O5  BDP d 303       8.569  34.681  50.112  0.00  0.00    -0.340 OA
ATOM     42  O2  BDP d 303       6.464  33.510  52.912  0.00  0.00    -0.388 OA
ATOM     43  H   BDP d 303       4.627  32.496  51.562  0.00  0.00     0.210 HD
ATOM     44  H   BDP d 303       6.722  32.071  50.675  0.00  0.00     0.091 H 
ATOM     45  H   BDP d 303       6.098  34.535  49.024  0.00  0.00     0.092 H 
ATOM     46  H   BDP d 303       6.219  34.938  51.464  0.00  0.00     0.094 H 
ATOM     47  H   BDP d 303       8.702  33.250  51.592  0.00  0.00     0.133 H 
ATOM     48  H   BDP d 303       8.551  32.800  49.156  0.00  0.00     0.104 H 
ATOM     49  H   BDP d 303       6.926  32.667  53.039  0.00  0.00     0.210 HD
ATOM     50  C1  ASG d 306       6.901  35.964  39.627  0.00  0.00     0.151 C 
ATOM     51  C4  ASG d 306       6.662  38.503  38.181  0.00  0.00     0.089 C 
ATOM     52  C6  ASG d 306       5.250  39.250  40.160  0.00  0.00     0.043 C 
ATOM     53  S   ASG d 306       4.982  39.211  36.359  0.00  0.00     0.252 S 
ATOM     54  O4  ASG d 306       5.483  38.169  37.447  0.00  0.00    -0.249 OA
ATOM     55  OSB ASG d 306       3.796  38.682  35.709  0.00  0.00    -0.572 OA
ATOM     56  OSA ASG d 306       4.655  40.465  37.013  0.00  0.00    -0.572 OA
ATOM     57  C3  ASG d 306       7.806  37.517  37.748  0.00  0.00    -0.014 C 
ATOM     58  C7  ASG d 306       7.924  33.801  37.230  0.00  0.00     0.214 C 
ATOM     59  N   ASG d 306       8.281  34.987  37.876  0.00  0.00    -0.352 N 
ATOM     60  C8  ASG d 306       9.095  32.870  37.039  0.00  0.00    -0.003 C 
ATOM     61  C2  ASG d 306       7.264  36.044  38.175  0.00  0.00     0.062 C 
ATOM     62  O5  ASG d 306       5.913  36.964  39.969  0.00  0.00    -0.349 OA
ATOM     63  O6  ASG d 306       4.918  38.997  41.524  0.00  0.00    -0.398 OA
ATOM     64  O7  ASG d 306       6.787  33.524  36.859  0.00  0.00    -0.274 OA
ATOM     65  OSC ASG d 306       6.022  39.431  35.379  0.00  0.00    -0.572 OA
ATOM     66  C5  ASG d 306       6.357  38.329  39.697  0.00  0.00     0.088 C 
ATOM     67  H   ASG d 306       7.770  36.150  40.222  0.00  0.00     0.132 H 
ATOM     68  H   ASG d 306       6.965  39.512  37.989  0.00  0.00     0.089 H 
ATOM     69  H   ASG d 306       4.383  39.090  39.552  0.00  0.00     0.078 H 
ATOM     70  H   ASG d 306       5.586  40.262  40.071  0.00  0.00     0.078 H 
ATOM     71  H   ASG d 306       8.716  37.747  38.261  0.00  0.00     0.040 H 
ATOM     72  H   ASG d 306       8.022  37.582  36.702  0.00  0.00     0.040 H 
ATOM     73  H   ASG d 306       9.219  35.131  38.139  0.00  0.00     0.163 HD
ATOM     74  H   ASG d 306       9.978  33.322  37.439  0.00  0.00     0.040 H 
ATOM     75  H   ASG d 306       9.233  32.679  35.995  0.00  0.00     0.040 H 
ATOM     76  H   ASG d 306       8.904  31.948  37.547  0.00  0.00     0.040 H 
ATOM     77  H   ASG d 306       6.380  35.877  37.595  0.00  0.00     0.080 H 
ATOM     78  H   ASG d 306       4.611  38.081  41.618  0.00  0.00     0.209 HD
ATOM     79  H   ASG d 306       7.264  38.558  40.218  0.00  0.00     0.090 H 
ATOM     80  C5  BDP d 305       6.698  32.967  41.550  0.00  0.00     0.152 C 
ATOM     81  O6B BDP d 305       8.346  34.019  42.850  0.00  0.00    -0.646 OA
ATOM     82  C6  BDP d 305       8.147  33.352  41.817  0.00  0.00     0.206 C 
ATOM     83  O4  BDP d 305       6.404  34.690  39.885  0.00  0.00    -0.348 OA
ATOM     84  O3  BDP d 305       3.589  34.715  40.277  0.00  0.00    -0.390 OA
ATOM     85  C2  BDP d 305       3.855  33.202  42.109  0.00  0.00     0.110 C 
ATOM     86  C1  BDP d 305       4.727  32.071  42.674  0.00  0.00     0.160 C 
ATOM     87  C4  BDP d 305       5.846  34.145  41.024  0.00  0.00     0.103 C 
ATOM     88  O6A BDP d 305       8.962  32.948  40.953  0.00  0.00    -0.646 OA
ATOM     89  C3  BDP d 305       4.408  33.653  40.771  0.00  0.00     0.092 C 
ATOM     90  O2  BDP d 305       2.515  32.718  41.979  0.00  0.00    -0.388 OA
ATOM     91  O5  BDP d 305       6.117  32.499  42.806  0.00  0.00    -0.340 OA
ATOM     92  H   BDP d 305       6.695  32.210  40.794  0.00  0.00     0.104 H 
ATOM     93  H   BDP d 305       2.689  34.385  40.125  0.00  0.00     0.210 HD
ATOM     94  H   BDP d 305       3.859  34.045  42.767  0.00  0.00     0.094 H 
ATOM     95  H   BDP d 305       4.679  31.248  41.991  0.00  0.00     0.133 H 
ATOM     96  H   BDP d 305       5.821  34.921  41.759  0.00  0.00     0.092 H 
ATOM     97  H   BDP d 305       4.413  32.865  40.049  0.00  0.00     0.091 H 
ATOM     98  H   BDP d 305       2.505  31.953  41.383  0.00  0.00     0.210 HD
ATOM     99  O6B BDP d 301      14.130  31.728  55.278  0.00  0.00    -0.646 OA
ATOM    100  C6  BDP d 301      13.296  32.317  56.001  0.00  0.00     0.206 C 
ATOM    101  O6A BDP d 301      12.146  31.968  56.345  0.00  0.00    -0.646 OA
ATOM    102  O5  BDP d 301      15.058  33.503  57.138  0.00  0.00    -0.340 OA
ATOM    103  C5  BDP d 301      13.747  33.664  56.551  0.00  0.00     0.152 C 
ATOM    104  C3  BDP d 301      14.283  36.082  56.164  0.00  0.00     0.092 C 
ATOM    105  C1  BDP d 301      15.584  34.738  57.714  0.00  0.00     0.156 C 
ATOM    106  O1  BDP d 301      16.922  34.398  58.322  0.00  0.00    -0.368 OA
ATOM    107  C4  BDP d 301      13.765  34.779  55.505  0.00  0.00     0.103 C 
ATOM    108  C2  BDP d 301      15.687  35.839  56.698  0.00  0.00     0.110 C 
ATOM    109  O2  BDP d 301      16.206  37.000  57.342  0.00  0.00    -0.388 OA
ATOM    110  O4  BDP d 301      12.436  34.962  55.173  0.00  0.00    -0.348 OA
ATOM    111  O3  BDP d 301      14.330  37.133  55.197  0.00  0.00    -0.390 OA
ATOM    112  H   BDP d 301      13.031  33.971  57.284  0.00  0.00     0.104 H 
ATOM    113  H   BDP d 301      13.625  36.363  56.960  0.00  0.00     0.091 H 
ATOM    114  H   BDP d 301      14.917  35.117  58.460  0.00  0.00     0.133 H 
ATOM    115  H   BDP d 301      17.513  34.056  57.633  0.00  0.00     0.212 HD
ATOM    116  H   BDP d 301      14.383  34.543  54.664  0.00  0.00     0.092 H 
ATOM    117  H   BDP d 301      16.340  35.587  55.889  0.00  0.00     0.094 H 
ATOM    118  H   BDP d 301      15.627  37.247  58.080  0.00  0.00     0.210 HD
ATOM    119  H   BDP d 301      14.926  36.880  54.474  0.00  0.00     0.210 HD
ATOM    120  OSC ASG d 304       0.655  29.949  46.082  0.00  0.00    -0.572 OA
ATOM    121  O3  ASG d 304       4.248  31.673  43.941  0.00  0.00    -0.348 OA
ATOM    122  C5  ASG d 304       3.117  33.962  46.714  0.00  0.00     0.090 C 
ATOM    123  C6  ASG d 304       1.813  34.299  47.395  0.00  0.00     0.043 C 
ATOM    124  O4  ASG d 304       2.397  31.716  46.133  0.00  0.00    -0.246 OA
ATOM    125  C7  ASG d 304       7.478  30.865  45.992  0.00  0.00     0.214 C 
ATOM    126  C8  ASG d 304       8.798  30.795  45.259  0.00  0.00    -0.003 C 
ATOM    127  S   ASG d 304       1.012  31.230  45.506  0.00  0.00     0.252 S 
ATOM    128  OSB ASG d 304      -0.029  32.200  45.795  0.00  0.00    -0.572 OA
ATOM    129  N   ASG d 304       6.640  31.852  45.494  0.00  0.00    -0.349 N 
ATOM    130  C4  ASG d 304       2.958  32.919  45.584  0.00  0.00     0.114 C 
ATOM    131  C3  ASG d 304       4.348  32.633  44.980  0.00  0.00     0.094 C 
ATOM    132  C1  ASG d 304       5.356  33.162  47.174  0.00  0.00     0.154 C 
ATOM    133  O7  ASG d 304       7.195  30.128  46.922  0.00  0.00    -0.274 OA
ATOM    134  O6  ASG d 304       1.916  35.538  48.100  0.00  0.00    -0.398 OA
ATOM    135  O5  ASG d 304       4.042  33.467  47.727  0.00  0.00    -0.349 OA
ATOM    136  C2  ASG d 304       5.275  32.108  46.065  0.00  0.00     0.087 C 
ATOM    137  OSA ASG d 304       1.149  31.099  44.065  0.00  0.00    -0.572 OA
ATOM    138  H   ASG d 304       3.490  34.850  46.249  0.00  0.00     0.090 H 
ATOM    139  H   ASG d 304       1.567  33.521  48.087  0.00  0.00     0.078 H 
ATOM    140  H   ASG d 304       1.050  34.389  46.651  0.00  0.00     0.078 H 
ATOM    141  H   ASG d 304       8.818  31.536  44.487  0.00  0.00     0.040 H 
ATOM    142  H   ASG d 304       8.914  29.825  44.825  0.00  0.00     0.040 H 
ATOM    143  H   ASG d 304       9.598  30.976  45.946  0.00  0.00     0.040 H 
ATOM    144  H   ASG d 304       6.951  32.404  44.741  0.00  0.00     0.163 HD
ATOM    145  H   ASG d 304       2.308  33.287  44.818  0.00  0.00     0.093 H 
ATOM    146  H   ASG d 304       4.742  33.542  44.576  0.00  0.00     0.091 H 
ATOM    147  H   ASG d 304       5.760  34.055  46.745  0.00  0.00     0.132 H 
ATOM    148  H   ASG d 304       2.606  35.467  48.778  0.00  0.00     0.209 HD
ATOM    149  H   ASG d 304       4.898  31.188  46.459  0.00  0.00     0.084 H 
ENDROOT
TORSDOF 38
ENDMDL
MODEL 48
REMARK VINA RESULT:      -5.5      6.414     10.209
REMARK  0 active torsions:
REMARK  status: ('A' for Active; 'I' for Inactive)
REMARK       I    between atoms: C6_2  and  C5_74 
REMARK       I    between atoms: C1_3  and  O4_24 
REMARK       I    between atoms: O6_4  and  C6_26 
REMARK       I    between atoms: C5_5  and  C6_12 
REMARK       I    between atoms: C4_6  and  O4_22 
REMARK       I    between atoms: C6_8  and  C5_90 
REMARK       I    between atoms: C6_8  and  O6_83 
REMARK       I    between atoms: O3_11  and  C3_60 
REMARK       I    between atoms: O3_11  and  C1_29 
REMARK       I    between atoms: C5_13  and  C6_18 
REMARK       I    between atoms: O4_14  and  C4_88 
REMARK       I    between atoms: O4_14  and  S_15 
REMARK       I    between atoms: C6_16  and  C5_28 
REMARK       I    between atoms: S_17  and  O4_22 
REMARK       I    between atoms: C6_18  and  O6_66 
REMARK       I    between atoms: O4_20  and  C4_46 
REMARK       I    between atoms: O4_20  and  C1_61 
REMARK       I    between atoms: O4_21  and  C4_54 
REMARK       I    between atoms: O4_21  and  S_40 
REMARK       I    between atoms: O4_24  and  C4_35 
REMARK       I    between atoms: O3_25  and  C3_48 
REMARK       I    between atoms: C6_26  and  C5_50 
REMARK       I    between atoms: C2_27  and  O2_55 
REMARK       I    between atoms: O3_31  and  C3_37 
REMARK       I    between atoms: C2_32  and  N_72 
REMARK       I    between atoms: C7_33  and  C8_39 
REMARK       I    between atoms: C7_33  and  N_52 
REMARK       I    between atoms: C1_34  and  O4_86 
REMARK       I    between atoms: C3_36  and  O3_87 
REMARK       I    between atoms: C2_47  and  O2_85 
REMARK       I    between atoms: N_52  and  C2_71 
REMARK       I    between atoms: C3_53  and  O3_81 
REMARK       I    between atoms: C1_56  and  O3_81 
REMARK       I    between atoms: C7_57  and  C8_64 
REMARK       I    between atoms: C7_57  and  N_63 
REMARK       I    between atoms: C8_58  and  C7_73 
REMARK       I    between atoms: C1_59  and  O1_68 
REMARK       I    between atoms: N_63  and  C2_67 
REMARK       I    between atoms: C4_69  and  O4_86 
REMARK       I    between atoms: N_72  and  C7_73 
REMARK       I    between atoms: C2_77  and  O2_82 
ROOT
ATOM      1  OSB ASG d 302      14.902  39.072  50.389  0.00  0.00    -0.572 OA
ATOM      2  O6  ASG d 302      16.497  35.002  49.942  0.00  0.00    -0.398 OA
ATOM      3  O4  ASG d 302      15.018  38.041  52.649  0.00  0.00    -0.246 OA
ATOM      4  S   ASG d 302      14.413  39.217  51.747  0.00  0.00     0.252 S 
ATOM      5  C6  ASG d 302      15.873  36.114  50.577  0.00  0.00     0.043 C 
ATOM      6  C2  ASG d 302      15.336  36.275  54.828  0.00  0.00     0.087 C 
ATOM      7  C1  ASG d 302      16.338  35.339  54.168  0.00  0.00     0.154 C 
ATOM      8  O5  ASG d 302      16.623  35.730  52.805  0.00  0.00    -0.349 OA
ATOM      9  C5  ASG d 302      15.439  35.751  51.974  0.00  0.00     0.090 C 
ATOM     10  O7  ASG d 302      15.533  37.821  57.249  0.00  0.00    -0.274 OA
ATOM     11  C3  ASG d 302      14.070  36.258  53.992  0.00  0.00     0.094 C 
ATOM     12  C8  ASG d 302      14.817  35.983  58.618  0.00  0.00    -0.003 C 
ATOM     13  OSA ASG d 302      12.963  39.155  51.750  0.00  0.00    -0.572 OA
ATOM     14  N   ASG d 302      15.044  35.809  56.217  0.00  0.00    -0.349 N 
ATOM     15  C7  ASG d 302      15.174  36.656  57.314  0.00  0.00     0.214 C 
ATOM     16  OSC ASG d 302      14.842  40.491  52.278  0.00  0.00    -0.572 OA
ATOM     17  O3  ASG d 302      13.183  37.153  54.560  0.00  0.00    -0.348 OA
ATOM     18  C4  ASG d 302      14.413  36.736  52.571  0.00  0.00     0.114 C 
ATOM     19  H   ASG d 302      16.770  35.253  49.046  0.00  0.00     0.209 HD
ATOM     20  H   ASG d 302      15.016  36.409  50.008  0.00  0.00     0.078 H 
ATOM     21  H   ASG d 302      16.576  36.919  50.633  0.00  0.00     0.078 H 
ATOM     22  H   ASG d 302      15.729  37.268  54.888  0.00  0.00     0.084 H 
ATOM     23  H   ASG d 302      15.908  34.360  54.164  0.00  0.00     0.132 H 
ATOM     24  H   ASG d 302      14.952  34.799  51.937  0.00  0.00     0.090 H 
ATOM     25  H   ASG d 302      13.649  35.274  53.953  0.00  0.00     0.091 H 
ATOM     26  H   ASG d 302      14.935  36.678  59.422  0.00  0.00     0.040 H 
ATOM     27  H   ASG d 302      15.463  35.144  58.775  0.00  0.00     0.040 H 
ATOM     28  H   ASG d 302      13.802  35.649  58.581  0.00  0.00     0.040 H 
ATOM     29  H   ASG d 302      14.753  34.879  56.360  0.00  0.00     0.163 HD
ATOM     30  H   ASG d 302      13.531  36.781  51.967  0.00  0.00     0.093 H 
ATOM     31  C6  BDP d 303       9.393  35.057  52.716  0.00  0.00     0.206 C 
ATOM     32  O4  BDP d 303       7.888  36.021  55.089  0.00  0.00    -0.348 OA
ATOM     33  O3  BDP d 303       9.031  38.007  56.752  0.00  0.00    -0.390 OA
ATOM     34  C3  BDP d 303       9.815  37.023  56.059  0.00  0.00     0.092 C 
ATOM     35  O6B BDP d 303       8.979  35.943  51.941  0.00  0.00    -0.646 OA
ATOM     36  C4  BDP d 303       9.107  36.596  54.765  0.00  0.00     0.103 C 
ATOM     37  C2  BDP d 303      11.153  37.631  55.686  0.00  0.00     0.110 C 
ATOM     38  O6A BDP d 303       9.392  33.812  52.579  0.00  0.00    -0.646 OA
ATOM     39  C1  BDP d 303      11.973  36.595  54.934  0.00  0.00     0.160 C 
ATOM     40  C5  BDP d 303       9.988  35.548  54.033  0.00  0.00     0.152 C 
ATOM     41  O5  BDP d 303      11.285  36.138  53.739  0.00  0.00    -0.340 OA
ATOM     42  O2  BDP d 303      11.868  38.022  56.862  0.00  0.00    -0.388 OA
ATOM     43  H   BDP d 303       9.488  38.268  57.567  0.00  0.00     0.210 HD
ATOM     44  H   BDP d 303       9.946  36.173  56.696  0.00  0.00     0.091 H 
ATOM     45  H   BDP d 303       8.951  37.445  54.132  0.00  0.00     0.092 H 
ATOM     46  H   BDP d 303      10.987  38.493  55.074  0.00  0.00     0.094 H 
ATOM     47  H   BDP d 303      12.124  35.759  55.584  0.00  0.00     0.133 H 
ATOM     48  H   BDP d 303      10.062  34.707  54.691  0.00  0.00     0.104 H 
ATOM     49  H   BDP d 303      12.023  37.244  57.420  0.00  0.00     0.210 HD
ATOM     50  C1  ASG d 306       2.631  34.219  47.756  0.00  0.00     0.151 C 
ATOM     51  C4  ASG d 306       2.039  35.332  45.109  0.00  0.00     0.089 C 
ATOM     52  C6  ASG d 306       2.902  37.521  46.073  0.00  0.00     0.043 C 
ATOM     53  S   ASG d 306      -0.165  36.288  44.178  0.00  0.00     0.252 S 
ATOM     54  O4  ASG d 306       0.694  35.722  45.387  0.00  0.00    -0.249 OA
ATOM     55  OSB ASG d 306      -1.500  36.602  44.653  0.00  0.00    -0.572 OA
ATOM     56  OSA ASG d 306       0.463  37.495  43.669  0.00  0.00    -0.572 OA
ATOM     57  C3  ASG d 306       2.135  33.769  45.244  0.00  0.00    -0.014 C 
ATOM     58  C7  ASG d 306       0.854  31.336  47.800  0.00  0.00     0.214 C 
ATOM     59  N   ASG d 306       1.864  32.004  47.102  0.00  0.00    -0.352 N 
ATOM     60  C8  ASG d 306       1.164  29.875  48.011  0.00  0.00    -0.003 C 
ATOM     61  C2  ASG d 306       1.760  33.466  46.797  0.00  0.00     0.062 C 
ATOM     62  O5  ASG d 306       2.562  35.643  47.509  0.00  0.00    -0.349 OA
ATOM     63  O6  ASG d 306       3.680  38.119  47.109  0.00  0.00    -0.398 OA
ATOM     64  O7  ASG d 306      -0.175  31.864  48.211  0.00  0.00    -0.274 OA
ATOM     65  OSC ASG d 306      -0.238  35.299  43.126  0.00  0.00    -0.572 OA
ATOM     66  C5  ASG d 306       2.970  36.012  46.155  0.00  0.00     0.088 C 
ATOM     67  H   ASG d 306       3.649  33.916  47.627  0.00  0.00     0.132 H 
ATOM     68  H   ASG d 306       2.333  35.626  44.123  0.00  0.00     0.089 H 
ATOM     69  H   ASG d 306       1.883  37.833  46.175  0.00  0.00     0.078 H 
ATOM     70  H   ASG d 306       3.294  37.832  45.127  0.00  0.00     0.078 H 
ATOM     71  H   ASG d 306       3.126  33.432  45.022  0.00  0.00     0.040 H 
ATOM     72  H   ASG d 306       1.483  33.264  44.563  0.00  0.00     0.040 H 
ATOM     73  H   ASG d 306       2.658  31.504  46.805  0.00  0.00     0.163 HD
ATOM     74  H   ASG d 306       2.110  29.644  47.568  0.00  0.00     0.040 H 
ATOM     75  H   ASG d 306       0.401  29.279  47.556  0.00  0.00     0.040 H 
ATOM     76  H   ASG d 306       1.201  29.667  49.060  0.00  0.00     0.040 H 
ATOM     77  H   ASG d 306       0.750  33.796  46.925  0.00  0.00     0.080 H 
ATOM     78  H   ASG d 306       3.334  37.845  47.973  0.00  0.00     0.209 HD
ATOM     79  H   ASG d 306       3.965  35.679  45.940  0.00  0.00     0.090 H 
ATOM     80  C5  BDP d 305       3.206  33.339  51.165  0.00  0.00     0.152 C 
ATOM     81  O6B BDP d 305       5.446  33.233  50.470  0.00  0.00    -0.646 OA
ATOM     82  C6  BDP d 305       4.369  32.609  50.506  0.00  0.00     0.206 C 
ATOM     83  O4  BDP d 305       2.204  33.937  49.051  0.00  0.00    -0.348 OA
ATOM     84  O3  BDP d 305       0.839  36.139  50.217  0.00  0.00    -0.390 OA
ATOM     85  C2  BDP d 305       2.004  35.745  52.267  0.00  0.00     0.110 C 
ATOM     86  C1  BDP d 305       2.662  34.664  53.138  0.00  0.00     0.160 C 
ATOM     87  C4  BDP d 305       2.601  34.446  50.271  0.00  0.00     0.103 C 
ATOM     88  O6A BDP d 305       4.089  31.463  50.076  0.00  0.00    -0.646 OA
ATOM     89  C3  BDP d 305       1.429  35.111  51.016  0.00  0.00     0.092 C 
ATOM     90  O2  BDP d 305       0.985  36.389  53.037  0.00  0.00    -0.388 OA
ATOM     91  O5  BDP d 305       3.698  33.953  52.395  0.00  0.00    -0.340 OA
ATOM     92  H   BDP d 305       2.433  32.622  51.349  0.00  0.00     0.104 H 
ATOM     93  H   BDP d 305       0.104  36.545  50.704  0.00  0.00     0.210 HD
ATOM     94  H   BDP d 305       2.725  36.474  51.963  0.00  0.00     0.094 H 
ATOM     95  H   BDP d 305       1.901  33.970  53.429  0.00  0.00     0.133 H 
ATOM     96  H   BDP d 305       3.347  35.186  50.070  0.00  0.00     0.092 H 
ATOM     97  H   BDP d 305       0.678  34.383  51.240  0.00  0.00     0.091 H 
ATOM     98  H   BDP d 305       0.328  35.732  53.316  0.00  0.00     0.210 HD
ATOM     99  O6B BDP d 301      17.765  32.298  56.834  0.00  0.00    -0.646 OA
ATOM    100  C6  BDP d 301      17.973  33.512  57.052  0.00  0.00     0.206 C 
ATOM    101  O6A BDP d 301      17.463  34.271  57.905  0.00  0.00    -0.646 OA
ATOM    102  O5  BDP d 301      20.192  33.342  56.129  0.00  0.00    -0.340 OA
ATOM    103  C5  BDP d 301      19.007  34.169  56.147  0.00  0.00     0.152 C 
ATOM    104  C3  BDP d 301      19.653  35.040  53.887  0.00  0.00     0.092 C 
ATOM    105  C1  BDP d 301      21.260  33.889  55.297  0.00  0.00     0.156 C 
ATOM    106  O1  BDP d 301      22.431  32.945  55.419  0.00  0.00    -0.368 OA
ATOM    107  C4  BDP d 301      18.507  34.416  54.724  0.00  0.00     0.103 C 
ATOM    108  C2  BDP d 301      20.830  34.077  53.872  0.00  0.00     0.110 C 
ATOM    109  O2  BDP d 301      21.928  34.612  53.136  0.00  0.00    -0.388 OA
ATOM    110  O4  BDP d 301      17.512  35.364  54.867  0.00  0.00    -0.348 OA
ATOM    111  O3  BDP d 301      19.214  35.258  52.545  0.00  0.00    -0.390 OA
ATOM    112  H   BDP d 301      19.220  35.138  56.548  0.00  0.00     0.104 H 
ATOM    113  H   BDP d 301      19.941  35.974  54.322  0.00  0.00     0.091 H 
ATOM    114  H   BDP d 301      21.531  34.868  55.632  0.00  0.00     0.133 H 
ATOM    115  H   BDP d 301      22.169  32.063  55.112  0.00  0.00     0.212 HD
ATOM    116  H   BDP d 301      18.172  33.521  54.245  0.00  0.00     0.092 H 
ATOM    117  H   BDP d 301      20.537  33.158  53.410  0.00  0.00     0.094 H 
ATOM    118  H   BDP d 301      22.211  35.448  53.538  0.00  0.00     0.210 HD
ATOM    119  H   BDP d 301      18.951  34.412  52.149  0.00  0.00     0.210 HD
ATOM    120  OSC ASG d 304       2.296  37.649  58.002  0.00  0.00    -0.572 OA
ATOM    121  O3  ASG d 304       3.240  35.250  54.285  0.00  0.00    -0.348 OA
ATOM    122  C5  ASG d 304       5.272  38.424  54.382  0.00  0.00     0.090 C 
ATOM    123  C6  ASG d 304       5.104  39.817  54.937  0.00  0.00     0.043 C 
ATOM    124  O4  ASG d 304       3.824  37.429  56.060  0.00  0.00    -0.246 OA
ATOM    125  C7  ASG d 304       6.514  33.194  54.878  0.00  0.00     0.214 C 
ATOM    126  C8  ASG d 304       6.721  31.925  54.084  0.00  0.00    -0.003 C 
ATOM    127  S   ASG d 304       2.399  37.920  56.583  0.00  0.00     0.252 S 
ATOM    128  OSB ASG d 304       2.250  39.345  56.348  0.00  0.00    -0.572 OA
ATOM    129  N   ASG d 304       5.891  34.192  54.142  0.00  0.00    -0.349 N 
ATOM    130  C4  ASG d 304       4.048  37.516  54.643  0.00  0.00     0.114 C 
ATOM    131  C3  ASG d 304       4.340  36.118  54.061  0.00  0.00     0.094 C 
ATOM    132  C1  ASG d 304       6.747  36.504  54.468  0.00  0.00     0.154 C 
ATOM    133  O7  ASG d 304       6.865  33.316  56.040  0.00  0.00    -0.274 OA
ATOM    134  O6  ASG d 304       6.021  40.722  54.318  0.00  0.00    -0.398 OA
ATOM    135  O5  ASG d 304       6.467  37.839  54.982  0.00  0.00    -0.349 OA
ATOM    136  C2  ASG d 304       5.582  35.542  54.721  0.00  0.00     0.087 C 
ATOM    137  OSA ASG d 304       1.348  37.212  55.871  0.00  0.00    -0.572 OA
ATOM    138  H   ASG d 304       5.368  38.496  53.319  0.00  0.00     0.090 H 
ATOM    139  H   ASG d 304       5.285  39.800  55.991  0.00  0.00     0.078 H 
ATOM    140  H   ASG d 304       4.107  40.148  54.737  0.00  0.00     0.078 H 
ATOM    141  H   ASG d 304       6.335  32.055  53.095  0.00  0.00     0.040 H 
ATOM    142  H   ASG d 304       6.209  31.117  54.563  0.00  0.00     0.040 H 
ATOM    143  H   ASG d 304       7.767  31.703  54.032  0.00  0.00     0.040 H 
ATOM    144  H   ASG d 304       5.644  34.007  53.207  0.00  0.00     0.163 HD
ATOM    145  H   ASG d 304       3.173  37.919  54.177  0.00  0.00     0.093 H 
ATOM    146  H   ASG d 304       4.499  36.210  53.007  0.00  0.00     0.091 H 
ATOM    147  H   ASG d 304       6.889  36.570  53.409  0.00  0.00     0.132 H 
ATOM    148  H   ASG d 304       6.930  40.430  54.493  0.00  0.00     0.209 HD
ATOM    149  H   ASG d 304       5.421  35.426  55.772  0.00  0.00     0.084 H 
ENDROOT
TORSDOF 38
ENDMDL
MODEL 49
REMARK VINA RESULT:      -5.4      7.566     17.578
REMARK  0 active torsions:
REMARK  status: ('A' for Active; 'I' for Inactive)
REMARK       I    between atoms: C6_2  and  C5_74 
REMARK       I    between atoms: C1_3  and  O4_24 
REMARK       I    between atoms: O6_4  and  C6_26 
REMARK       I    between atoms: C5_5  and  C6_12 
REMARK       I    between atoms: C4_6  and  O4_22 
REMARK       I    between atoms: C6_8  and  C5_90 
REMARK       I    between atoms: C6_8  and  O6_83 
REMARK       I    between atoms: O3_11  and  C3_60 
REMARK       I    between atoms: O3_11  and  C1_29 
REMARK       I    between atoms: C5_13  and  C6_18 
REMARK       I    between atoms: O4_14  and  C4_88 
REMARK       I    between atoms: O4_14  and  S_15 
REMARK       I    between atoms: C6_16  and  C5_28 
REMARK       I    between atoms: S_17  and  O4_22 
REMARK       I    between atoms: C6_18  and  O6_66 
REMARK       I    between atoms: O4_20  and  C4_46 
REMARK       I    between atoms: O4_20  and  C1_61 
REMARK       I    between atoms: O4_21  and  C4_54 
REMARK       I    between atoms: O4_21  and  S_40 
REMARK       I    between atoms: O4_24  and  C4_35 
REMARK       I    between atoms: O3_25  and  C3_48 
REMARK       I    between atoms: C6_26  and  C5_50 
REMARK       I    between atoms: C2_27  and  O2_55 
REMARK       I    between atoms: O3_31  and  C3_37 
REMARK       I    between atoms: C2_32  and  N_72 
REMARK       I    between atoms: C7_33  and  C8_39 
REMARK       I    between atoms: C7_33  and  N_52 
REMARK       I    between atoms: C1_34  and  O4_86 
REMARK       I    between atoms: C3_36  and  O3_87 
REMARK       I    between atoms: C2_47  and  O2_85 
REMARK       I    between atoms: N_52  and  C2_71 
REMARK       I    between atoms: C3_53  and  O3_81 
REMARK       I    between atoms: C1_56  and  O3_81 
REMARK       I    between atoms: C7_57  and  C8_64 
REMARK       I    between atoms: C7_57  and  N_63 
REMARK       I    between atoms: C8_58  and  C7_73 
REMARK       I    between atoms: C1_59  and  O1_68 
REMARK       I    between atoms: N_63  and  C2_67 
REMARK       I    between atoms: C4_69  and  O4_86 
REMARK       I    between atoms: N_72  and  C7_73 
REMARK       I    between atoms: C2_77  and  O2_82 
ROOT
ATOM      1  OSB ASG d 302       0.376  39.716  48.655  0.00  0.00    -0.572 OA
ATOM      2  O6  ASG d 302       3.167  39.667  52.049  0.00  0.00    -0.398 OA
ATOM      3  O4  ASG d 302       0.627  37.360  49.408  0.00  0.00    -0.246 OA
ATOM      4  S   ASG d 302       0.148  38.345  48.241  0.00  0.00     0.252 S 
ATOM      5  C6  ASG d 302       2.366  39.152  50.990  0.00  0.00     0.043 C 
ATOM      6  C2  ASG d 302       1.423  34.979  50.700  0.00  0.00     0.087 C 
ATOM      7  C1  ASG d 302       1.902  35.618  51.995  0.00  0.00     0.154 C 
ATOM      8  O5  ASG d 302       1.777  37.059  51.963  0.00  0.00    -0.349 OA
ATOM      9  C5  ASG d 302       2.529  37.657  50.881  0.00  0.00     0.090 C 
ATOM     10  O7  ASG d 302      -0.581  32.963  50.237  0.00  0.00    -0.274 OA
ATOM     11  C3  ASG d 302       2.247  35.561  49.566  0.00  0.00     0.094 C 
ATOM     12  C8  ASG d 302       0.969  31.170  50.625  0.00  0.00    -0.003 C 
ATOM     13  OSA ASG d 302       0.887  38.076  47.021  0.00  0.00    -0.572 OA
ATOM     14  N   ASG d 302       1.608  33.498  50.765  0.00  0.00    -0.349 N 
ATOM     15  C7  ASG d 302       0.557  32.620  50.517  0.00  0.00     0.214 C 
ATOM     16  OSC ASG d 302      -1.264  38.146  48.003  0.00  0.00    -0.572 OA
ATOM     17  O3  ASG d 302       1.771  35.024  48.386  0.00  0.00    -0.348 OA
ATOM     18  C4  ASG d 302       2.036  37.084  49.537  0.00  0.00     0.114 C 
ATOM     19  H   ASG d 302       3.050  40.628  52.105  0.00  0.00     0.209 HD
ATOM     20  H   ASG d 302       2.666  39.606  50.069  0.00  0.00     0.078 H 
ATOM     21  H   ASG d 302       1.339  39.372  51.195  0.00  0.00     0.078 H 
ATOM     22  H   ASG d 302       0.383  35.177  50.543  0.00  0.00     0.084 H 
ATOM     23  H   ASG d 302       2.934  35.363  52.115  0.00  0.00     0.132 H 
ATOM     24  H   ASG d 302       3.573  37.430  50.938  0.00  0.00     0.090 H 
ATOM     25  H   ASG d 302       3.287  35.341  49.695  0.00  0.00     0.091 H 
ATOM     26  H   ASG d 302       0.125  30.544  50.425  0.00  0.00     0.040 H 
ATOM     27  H   ASG d 302       1.331  30.975  51.613  0.00  0.00     0.040 H 
ATOM     28  H   ASG d 302       1.742  30.965  49.915  0.00  0.00     0.040 H 
ATOM     29  H   ASG d 302       2.495  33.135  50.990  0.00  0.00     0.163 HD
ATOM     30  H   ASG d 302       2.567  37.522  48.717  0.00  0.00     0.093 H 
ATOM     31  C6  BDP d 303       5.799  35.747  46.060  0.00  0.00     0.206 C 
ATOM     32  O4  BDP d 303       5.106  33.369  44.419  0.00  0.00    -0.348 OA
ATOM     33  O3  BDP d 303       2.472  32.335  44.506  0.00  0.00    -0.390 OA
ATOM     34  C3  BDP d 303       3.104  32.959  45.635  0.00  0.00     0.092 C 
ATOM     35  O6B BDP d 303       5.441  36.589  45.211  0.00  0.00    -0.646 OA
ATOM     36  C4  BDP d 303       4.123  34.005  45.162  0.00  0.00     0.103 C 
ATOM     37  C2  BDP d 303       2.049  33.668  46.462  0.00  0.00     0.110 C 
ATOM     38  O6A BDP d 303       6.884  35.647  46.677  0.00  0.00    -0.646 OA
ATOM     39  C1  BDP d 303       2.722  34.345  47.645  0.00  0.00     0.160 C 
ATOM     40  C5  BDP d 303       4.772  34.671  46.405  0.00  0.00     0.152 C 
ATOM     41  O5  BDP d 303       3.732  35.293  47.210  0.00  0.00    -0.340 OA
ATOM     42  O2  BDP d 303       1.086  32.731  46.952  0.00  0.00    -0.388 OA
ATOM     43  H   BDP d 303       1.832  31.677  44.817  0.00  0.00     0.210 HD
ATOM     44  H   BDP d 303       3.600  32.207  46.213  0.00  0.00     0.091 H 
ATOM     45  H   BDP d 303       3.639  34.748  44.563  0.00  0.00     0.092 H 
ATOM     46  H   BDP d 303       1.553  34.391  45.848  0.00  0.00     0.094 H 
ATOM     47  H   BDP d 303       3.194  33.587  48.234  0.00  0.00     0.133 H 
ATOM     48  H   BDP d 303       5.283  33.891  46.930  0.00  0.00     0.104 H 
ATOM     49  H   BDP d 303       1.529  32.073  47.510  0.00  0.00     0.210 HD
ATOM     50  C1  ASG d 306      10.954  39.194  40.353  0.00  0.00     0.151 C 
ATOM     51  C4  ASG d 306      10.956  41.857  39.126  0.00  0.00     0.089 C 
ATOM     52  C6  ASG d 306       8.458  41.487  38.827  0.00  0.00     0.043 C 
ATOM     53  S   ASG d 306      11.427  42.549  36.688  0.00  0.00     0.252 S 
ATOM     54  O4  ASG d 306      11.196  41.425  37.785  0.00  0.00    -0.249 OA
ATOM     55  OSB ASG d 306      11.678  41.913  35.407  0.00  0.00    -0.572 OA
ATOM     56  OSA ASG d 306      10.238  43.376  36.593  0.00  0.00    -0.572 OA
ATOM     57  C3  ASG d 306      12.196  41.451  40.001  0.00  0.00    -0.014 C 
ATOM     58  C7  ASG d 306      14.219  38.300  40.272  0.00  0.00     0.214 C 
ATOM     59  N   ASG d 306      13.351  39.277  40.765  0.00  0.00    -0.352 N 
ATOM     60  C8  ASG d 306      15.252  37.877  41.286  0.00  0.00    -0.003 C 
ATOM     61  C2  ASG d 306      12.242  39.827  39.923  0.00  0.00     0.062 C 
ATOM     62  O5  ASG d 306       9.846  39.688  39.563  0.00  0.00    -0.349 OA
ATOM     63  O6  ASG d 306       7.325  40.735  39.259  0.00  0.00    -0.398 OA
ATOM     64  O7  ASG d 306      14.160  37.820  39.143  0.00  0.00    -0.274 OA
ATOM     65  OSC ASG d 306      12.560  43.367  37.060  0.00  0.00    -0.572 OA
ATOM     66  C5  ASG d 306       9.679  41.137  39.649  0.00  0.00     0.088 C 
ATOM     67  H   ASG d 306      10.759  39.441  41.375  0.00  0.00     0.132 H 
ATOM     68  H   ASG d 306      10.815  42.917  39.172  0.00  0.00     0.089 H 
ATOM     69  H   ASG d 306       8.653  41.268  37.797  0.00  0.00     0.078 H 
ATOM     70  H   ASG d 306       8.246  42.528  38.953  0.00  0.00     0.078 H 
ATOM     71  H   ASG d 306      12.066  41.776  41.012  0.00  0.00     0.040 H 
ATOM     72  H   ASG d 306      13.102  41.900  39.652  0.00  0.00     0.040 H 
ATOM     73  H   ASG d 306      13.470  39.611  41.684  0.00  0.00     0.163 HD
ATOM     74  H   ASG d 306      15.109  38.429  42.192  0.00  0.00     0.040 H 
ATOM     75  H   ASG d 306      16.231  38.071  40.900  0.00  0.00     0.040 H 
ATOM     76  H   ASG d 306      15.148  36.831  41.485  0.00  0.00     0.040 H 
ATOM     77  H   ASG d 306      12.411  39.588  38.893  0.00  0.00     0.080 H 
ATOM     78  H   ASG d 306       7.505  39.787  39.150  0.00  0.00     0.209 HD
ATOM     79  H   ASG d 306       9.542  41.458  40.661  0.00  0.00     0.090 H 
ATOM     80  C5  BDP d 305      10.572  35.836  41.494  0.00  0.00     0.152 C 
ATOM     81  O6B BDP d 305       9.772  36.882  43.438  0.00  0.00    -0.646 OA
ATOM     82  C6  BDP d 305      10.801  36.541  42.824  0.00  0.00     0.206 C 
ATOM     83  O4  BDP d 305      11.071  37.816  40.204  0.00  0.00    -0.348 OA
ATOM     84  O3  BDP d 305       9.568  36.860  37.989  0.00  0.00    -0.390 OA
ATOM     85  C2  BDP d 305       8.836  35.010  39.314  0.00  0.00     0.110 C 
ATOM     86  C1  BDP d 305       9.219  34.081  40.476  0.00  0.00     0.160 C 
ATOM     87  C4  BDP d 305      10.148  36.801  40.363  0.00  0.00     0.103 C 
ATOM     88  O6A BDP d 305      12.008  36.694  43.134  0.00  0.00    -0.646 OA
ATOM     89  C3  BDP d 305       9.957  36.000  39.062  0.00  0.00     0.092 C 
ATOM     90  O2  BDP d 305       8.584  34.208  38.158  0.00  0.00    -0.388 OA
ATOM     91  O5  BDP d 305       9.513  34.849  41.683  0.00  0.00    -0.340 OA
ATOM     92  H   BDP d 305      11.498  35.389  41.199  0.00  0.00     0.104 H 
ATOM     93  H   BDP d 305       9.453  36.337  37.180  0.00  0.00     0.210 HD
ATOM     94  H   BDP d 305       7.955  35.567  39.552  0.00  0.00     0.094 H 
ATOM     95  H   BDP d 305      10.093  33.537  40.187  0.00  0.00     0.133 H 
ATOM     96  H   BDP d 305       9.220  37.265  40.623  0.00  0.00     0.092 H 
ATOM     97  H   BDP d 305      10.871  35.515  38.793  0.00  0.00     0.091 H 
ATOM     98  H   BDP d 305       9.380  33.699  37.937  0.00  0.00     0.210 HD
ATOM     99  O6B BDP d 301       3.126  32.723  54.913  0.00  0.00    -0.646 OA
ATOM    100  C6  BDP d 301       1.948  32.776  54.495  0.00  0.00     0.206 C 
ATOM    101  O6A BDP d 301       1.337  32.005  53.724  0.00  0.00    -0.646 OA
ATOM    102  O5  BDP d 301       1.270  34.027  56.439  0.00  0.00    -0.340 OA
ATOM    103  C5  BDP d 301       1.129  33.956  55.002  0.00  0.00     0.152 C 
ATOM    104  C3  BDP d 301       0.652  36.416  54.987  0.00  0.00     0.092 C 
ATOM    105  C1  BDP d 301       0.509  35.121  57.036  0.00  0.00     0.156 C 
ATOM    106  O1  BDP d 301       0.720  35.032  58.528  0.00  0.00    -0.368 OA
ATOM    107  C4  BDP d 301       1.513  35.290  54.362  0.00  0.00     0.103 C 
ATOM    108  C2  BDP d 301       0.910  36.459  56.486  0.00  0.00     0.110 C 
ATOM    109  O2  BDP d 301       0.122  37.463  57.120  0.00  0.00    -0.388 OA
ATOM    110  O4  BDP d 301       1.149  35.153  53.036  0.00  0.00    -0.348 OA
ATOM    111  O3  BDP d 301       1.012  37.677  54.419  0.00  0.00    -0.390 OA
ATOM    112  H   BDP d 301       0.110  33.787  54.723  0.00  0.00     0.104 H 
ATOM    113  H   BDP d 301      -0.382  36.222  54.792  0.00  0.00     0.091 H 
ATOM    114  H   BDP d 301      -0.530  35.028  56.798  0.00  0.00     0.133 H 
ATOM    115  H   BDP d 301       1.665  35.118  58.727  0.00  0.00     0.212 HD
ATOM    116  H   BDP d 301       2.548  35.526  54.495  0.00  0.00     0.092 H 
ATOM    117  H   BDP d 301       1.941  36.681  56.667  0.00  0.00     0.094 H 
ATOM    118  H   BDP d 301      -0.819  37.280  56.968  0.00  0.00     0.210 HD
ATOM    119  H   BDP d 301       1.949  37.855  54.594  0.00  0.00     0.210 HD
ATOM    120  OSC ASG d 304       5.658  29.875  38.952  0.00  0.00    -0.572 OA
ATOM    121  O3  ASG d 304       8.163  33.184  40.750  0.00  0.00    -0.348 OA
ATOM    122  C5  ASG d 304       4.496  34.042  40.913  0.00  0.00     0.090 C 
ATOM    123  C6  ASG d 304       3.261  33.738  40.101  0.00  0.00     0.043 C 
ATOM    124  O4  ASG d 304       5.604  31.980  40.264  0.00  0.00    -0.246 OA
ATOM    125  C7  ASG d 304       8.197  32.803  44.642  0.00  0.00     0.214 C 
ATOM    126  C8  ASG d 304       9.369  33.369  45.411  0.00  0.00    -0.003 C 
ATOM    127  S   ASG d 304       5.735  31.316  38.819  0.00  0.00     0.252 S 
ATOM    128  OSB ASG d 304       4.661  31.783  37.960  0.00  0.00    -0.572 OA
ATOM    129  N   ASG d 304       7.835  33.591  43.559  0.00  0.00    -0.349 N 
ATOM    130  C4  ASG d 304       5.778  33.405  40.329  0.00  0.00     0.114 C 
ATOM    131  C3  ASG d 304       6.965  33.757  41.248  0.00  0.00     0.094 C 
ATOM    132  C1  ASG d 304       5.396  33.859  43.155  0.00  0.00     0.154 C 
ATOM    133  O7  ASG d 304       7.637  31.764  44.953  0.00  0.00    -0.274 OA
ATOM    134  O6  ASG d 304       2.217  34.666  40.400  0.00  0.00    -0.398 OA
ATOM    135  O5  ASG d 304       4.273  33.563  42.273  0.00  0.00    -0.349 OA
ATOM    136  C2  ASG d 304       6.697  33.230  42.648  0.00  0.00     0.087 C 
ATOM    137  OSA ASG d 304       7.010  31.686  38.226  0.00  0.00    -0.572 OA
ATOM    138  H   ASG d 304       4.655  35.100  40.896  0.00  0.00     0.090 H 
ATOM    139  H   ASG d 304       2.926  32.748  40.329  0.00  0.00     0.078 H 
ATOM    140  H   ASG d 304       3.505  33.817  39.062  0.00  0.00     0.078 H 
ATOM    141  H   ASG d 304       9.689  34.282  44.953  0.00  0.00     0.040 H 
ATOM    142  H   ASG d 304      10.173  32.665  45.404  0.00  0.00     0.040 H 
ATOM    143  H   ASG d 304       9.073  33.562  46.421  0.00  0.00     0.040 H 
ATOM    144  H   ASG d 304       8.341  34.417  43.383  0.00  0.00     0.163 HD
ATOM    145  H   ASG d 304       5.970  33.776  39.344  0.00  0.00     0.093 H 
ATOM    146  H   ASG d 304       7.075  34.821  41.277  0.00  0.00     0.091 H 
ATOM    147  H   ASG d 304       5.537  34.920  43.181  0.00  0.00     0.132 H 
ATOM    148  H   ASG d 304       1.988  34.602  41.341  0.00  0.00     0.209 HD
ATOM    149  H   ASG d 304       6.608  32.164  42.631  0.00  0.00     0.084 H 
ENDROOT
TORSDOF 38
ENDMDL
MODEL 50
REMARK VINA RESULT:      -5.4      5.943     11.278
REMARK  0 active torsions:
REMARK  status: ('A' for Active; 'I' for Inactive)
REMARK       I    between atoms: C6_2  and  C5_74 
REMARK       I    between atoms: C1_3  and  O4_24 
REMARK       I    between atoms: O6_4  and  C6_26 
REMARK       I    between atoms: C5_5  and  C6_12 
REMARK       I    between atoms: C4_6  and  O4_22 
REMARK       I    between atoms: C6_8  and  C5_90 
REMARK       I    between atoms: C6_8  and  O6_83 
REMARK       I    between atoms: O3_11  and  C3_60 
REMARK       I    between atoms: O3_11  and  C1_29 
REMARK       I    between atoms: C5_13  and  C6_18 
REMARK       I    between atoms: O4_14  and  C4_88 
REMARK       I    between atoms: O4_14  and  S_15 
REMARK       I    between atoms: C6_16  and  C5_28 
REMARK       I    between atoms: S_17  and  O4_22 
REMARK       I    between atoms: C6_18  and  O6_66 
REMARK       I    between atoms: O4_20  and  C4_46 
REMARK       I    between atoms: O4_20  and  C1_61 
REMARK       I    between atoms: O4_21  and  C4_54 
REMARK       I    between atoms: O4_21  and  S_40 
REMARK       I    between atoms: O4_24  and  C4_35 
REMARK       I    between atoms: O3_25  and  C3_48 
REMARK       I    between atoms: C6_26  and  C5_50 
REMARK       I    between atoms: C2_27  and  O2_55 
REMARK       I    between atoms: O3_31  and  C3_37 
REMARK       I    between atoms: C2_32  and  N_72 
REMARK       I    between atoms: C7_33  and  C8_39 
REMARK       I    between atoms: C7_33  and  N_52 
REMARK       I    between atoms: C1_34  and  O4_86 
REMARK       I    between atoms: C3_36  and  O3_87 
REMARK       I    between atoms: C2_47  and  O2_85 
REMARK       I    between atoms: N_52  and  C2_71 
REMARK       I    between atoms: C3_53  and  O3_81 
REMARK       I    between atoms: C1_56  and  O3_81 
REMARK       I    between atoms: C7_57  and  C8_64 
REMARK       I    between atoms: C7_57  and  N_63 
REMARK       I    between atoms: C8_58  and  C7_73 
REMARK       I    between atoms: C1_59  and  O1_68 
REMARK       I    between atoms: N_63  and  C2_67 
REMARK       I    between atoms: C4_69  and  O4_86 
REMARK       I    between atoms: N_72  and  C7_73 
REMARK       I    between atoms: C2_77  and  O2_82 
ROOT
ATOM      1  OSB ASG d 302      16.426  38.954  51.446  0.00  0.00    -0.572 OA
ATOM      2  O6  ASG d 302      19.625  36.097  50.489  0.00  0.00    -0.398 OA
ATOM      3  O4  ASG d 302      15.937  36.828  52.638  0.00  0.00    -0.246 OA
ATOM      4  S   ASG d 302      15.367  38.233  52.124  0.00  0.00     0.252 S 
ATOM      5  C6  ASG d 302      18.372  36.561  50.983  0.00  0.00     0.043 C 
ATOM      6  C2  ASG d 302      15.959  34.175  53.605  0.00  0.00     0.087 C 
ATOM      7  C1  ASG d 302      17.443  33.911  53.397  0.00  0.00     0.154 C 
ATOM      8  O5  ASG d 302      18.114  35.046  52.803  0.00  0.00    -0.349 OA
ATOM      9  C5  ASG d 302      17.556  35.412  51.520  0.00  0.00     0.090 C 
ATOM     10  O7  ASG d 302      14.351  34.049  55.990  0.00  0.00    -0.274 OA
ATOM     11  C3  ASG d 302      15.356  34.505  52.251  0.00  0.00     0.094 C 
ATOM     12  C8  ASG d 302      13.963  31.692  55.743  0.00  0.00    -0.003 C 
ATOM     13  OSA ASG d 302      14.260  38.021  51.211  0.00  0.00    -0.572 OA
ATOM     14  N   ASG d 302      15.303  32.964  54.181  0.00  0.00    -0.349 N 
ATOM     15  C7  ASG d 302      14.543  33.030  55.346  0.00  0.00     0.214 C 
ATOM     16  OSC ASG d 302      14.913  39.003  53.260  0.00  0.00    -0.572 OA
ATOM     17  O3  ASG d 302      14.021  34.802  52.451  0.00  0.00    -0.348 OA
ATOM     18  C4  ASG d 302      16.061  35.750  51.689  0.00  0.00     0.114 C 
ATOM     19  H   ASG d 302      20.136  36.848  50.149  0.00  0.00     0.209 HD
ATOM     20  H   ASG d 302      17.834  37.033  50.189  0.00  0.00     0.078 H 
ATOM     21  H   ASG d 302      18.549  37.257  51.776  0.00  0.00     0.078 H 
ATOM     22  H   ASG d 302      15.811  34.988  54.285  0.00  0.00     0.084 H 
ATOM     23  H   ASG d 302      17.529  33.074  52.737  0.00  0.00     0.132 H 
ATOM     24  H   ASG d 302      17.603  34.610  50.813  0.00  0.00     0.090 H 
ATOM     25  H   ASG d 302      15.468  33.685  51.572  0.00  0.00     0.091 H 
ATOM     26  H   ASG d 302      13.392  31.803  56.640  0.00  0.00     0.040 H 
ATOM     27  H   ASG d 302      14.758  30.995  55.909  0.00  0.00     0.040 H 
ATOM     28  H   ASG d 302      13.330  31.331  54.959  0.00  0.00     0.040 H 
ATOM     29  H   ASG d 302      15.410  32.097  53.727  0.00  0.00     0.163 HD
ATOM     30  H   ASG d 302      15.627  36.039  50.755  0.00  0.00     0.093 H 
ATOM     31  C6  BDP d 303      12.798  33.754  48.028  0.00  0.00     0.206 C 
ATOM     32  O4  BDP d 303      10.133  32.996  49.102  0.00  0.00    -0.348 OA
ATOM     33  O3  BDP d 303       9.418  33.768  51.730  0.00  0.00    -0.390 OA
ATOM     34  C3  BDP d 303      10.768  33.459  51.346  0.00  0.00     0.092 C 
ATOM     35  O6B BDP d 303      12.444  34.872  47.603  0.00  0.00    -0.646 OA
ATOM     36  C4  BDP d 303      10.985  33.784  49.861  0.00  0.00     0.103 C 
ATOM     37  C2  BDP d 303      11.720  34.314  52.160  0.00  0.00     0.110 C 
ATOM     38  O6A BDP d 303      13.395  32.826  47.435  0.00  0.00    -0.646 OA
ATOM     39  C1  BDP d 303      13.147  34.001  51.738  0.00  0.00     0.160 C 
ATOM     40  C5  BDP d 303      12.455  33.456  49.486  0.00  0.00     0.152 C 
ATOM     41  O5  BDP d 303      13.347  34.246  50.320  0.00  0.00    -0.340 OA
ATOM     42  O2  BDP d 303      11.578  34.030  53.555  0.00  0.00    -0.388 OA
ATOM     43  H   BDP d 303       9.294  33.559  52.669  0.00  0.00     0.210 HD
ATOM     44  H   BDP d 303      10.947  32.418  51.519  0.00  0.00     0.091 H 
ATOM     45  H   BDP d 303      10.784  34.818  49.676  0.00  0.00     0.092 H 
ATOM     46  H   BDP d 303      11.496  35.346  51.988  0.00  0.00     0.094 H 
ATOM     47  H   BDP d 303      13.330  32.966  51.937  0.00  0.00     0.133 H 
ATOM     48  H   BDP d 303      12.577  32.404  49.640  0.00  0.00     0.104 H 
ATOM     49  H   BDP d 303      11.781  33.096  53.717  0.00  0.00     0.210 HD
ATOM     50  C1  ASG d 306      10.123  35.194  40.167  0.00  0.00     0.151 C 
ATOM     51  C4  ASG d 306      10.381  37.558  38.452  0.00  0.00     0.089 C 
ATOM     52  C6  ASG d 306       9.677  38.867  40.516  0.00  0.00     0.043 C 
ATOM     53  S   ASG d 306       8.670  38.626  36.848  0.00  0.00     0.252 S 
ATOM     54  O4  ASG d 306       9.036  37.564  37.970  0.00  0.00    -0.249 OA
ATOM     55  OSB ASG d 306       7.277  38.457  36.476  0.00  0.00    -0.572 OA
ATOM     56  OSA ASG d 306       8.871  39.965  37.373  0.00  0.00    -0.572 OA
ATOM     57  C3  ASG d 306      11.067  36.227  37.976  0.00  0.00    -0.014 C 
ATOM     58  C7  ASG d 306       9.956  32.641  37.948  0.00  0.00     0.214 C 
ATOM     59  N   ASG d 306      10.773  33.696  38.362  0.00  0.00    -0.352 N 
ATOM     60  C8  ASG d 306      10.731  31.372  37.696  0.00  0.00    -0.003 C 
ATOM     61  C2  ASG d 306      10.201  35.043  38.679  0.00  0.00     0.062 C 
ATOM     62  O5  ASG d 306       9.569  36.481  40.528  0.00  0.00    -0.349 OA
ATOM     63  O6  ASG d 306       9.557  38.838  41.937  0.00  0.00    -0.398 OA
ATOM     64  O7  ASG d 306       8.739  32.716  37.806  0.00  0.00    -0.274 OA
ATOM     65  OSC ASG d 306       9.515  38.425  35.692  0.00  0.00    -0.572 OA
ATOM     66  C5  ASG d 306      10.342  37.606  40.008  0.00  0.00     0.088 C 
ATOM     67  H   ASG d 306      11.107  35.136  40.583  0.00  0.00     0.132 H 
ATOM     68  H   ASG d 306      10.930  38.398  38.080  0.00  0.00     0.089 H 
ATOM     69  H   ASG d 306       8.701  38.948  40.083  0.00  0.00     0.078 H 
ATOM     70  H   ASG d 306      10.277  39.708  40.238  0.00  0.00     0.078 H 
ATOM     71  H   ASG d 306      12.087  36.192  38.299  0.00  0.00     0.040 H 
ATOM     72  H   ASG d 306      11.083  36.139  36.910  0.00  0.00     0.040 H 
ATOM     73  H   ASG d 306      11.743  33.551  38.448  0.00  0.00     0.163 HD
ATOM     74  H   ASG d 306      11.770  31.546  37.884  0.00  0.00     0.040 H 
ATOM     75  H   ASG d 306      10.598  31.068  36.679  0.00  0.00     0.040 H 
ATOM     76  H   ASG d 306      10.375  30.601  38.348  0.00  0.00     0.040 H 
ATOM     77  H   ASG d 306       9.213  35.124  38.277  0.00  0.00     0.080 H 
ATOM     78  H   ASG d 306       9.014  38.079  42.201  0.00  0.00     0.209 HD
ATOM     79  H   ASG d 306      11.359  37.572  40.339  0.00  0.00     0.090 H 
ATOM     80  C5  BDP d 305       9.407  32.576  42.482  0.00  0.00     0.152 C 
ATOM     81  O6B BDP d 305      11.517  33.140  43.345  0.00  0.00    -0.646 OA
ATOM     82  C6  BDP d 305      10.928  32.495  42.457  0.00  0.00     0.206 C 
ATOM     83  O4  BDP d 305       9.326  34.171  40.671  0.00  0.00    -0.348 OA
ATOM     84  O3  BDP d 305       6.783  35.127  41.507  0.00  0.00    -0.390 OA
ATOM     85  C2  BDP d 305       6.934  33.753  43.457  0.00  0.00     0.110 C 
ATOM     86  C1  BDP d 305       7.519  32.448  44.020  0.00  0.00     0.160 C 
ATOM     87  C4  BDP d 305       8.864  33.921  41.948  0.00  0.00     0.103 C 
ATOM     88  O6A BDP d 305      11.397  31.787  41.533  0.00  0.00    -0.646 OA
ATOM     89  C3  BDP d 305       7.324  33.899  42.000  0.00  0.00     0.092 C 
ATOM     90  O2  BDP d 305       5.513  33.716  43.612  0.00  0.00    -0.388 OA
ATOM     91  O5  BDP d 305       8.970  32.417  43.867  0.00  0.00    -0.340 OA
ATOM     92  H   BDP d 305       9.029  31.805  41.844  0.00  0.00     0.104 H 
ATOM     93  H   BDP d 305       5.814  35.093  41.548  0.00  0.00     0.210 HD
ATOM     94  H   BDP d 305       7.322  34.598  43.986  0.00  0.00     0.094 H 
ATOM     95  H   BDP d 305       7.092  31.635  43.471  0.00  0.00     0.133 H 
ATOM     96  H   BDP d 305       9.219  34.718  42.567  0.00  0.00     0.092 H 
ATOM     97  H   BDP d 305       6.950  33.098  41.398  0.00  0.00     0.091 H 
ATOM     98  H   BDP d 305       5.156  32.951  43.134  0.00  0.00     0.210 HD
ATOM     99  O6B BDP d 301      18.658  30.069  54.865  0.00  0.00    -0.646 OA
ATOM    100  C6  BDP d 301      18.200  30.947  55.628  0.00  0.00     0.206 C 
ATOM    101  O6A BDP d 301      17.089  31.013  56.198  0.00  0.00    -0.646 OA
ATOM    102  O5  BDP d 301      20.424  31.589  56.296  0.00  0.00    -0.340 OA
ATOM    103  C5  BDP d 301      19.134  32.117  55.912  0.00  0.00     0.152 C 
ATOM    104  C3  BDP d 301      20.287  34.198  55.124  0.00  0.00     0.092 C 
ATOM    105  C1  BDP d 301      21.399  32.630  56.608  0.00  0.00     0.156 C 
ATOM    106  O1  BDP d 301      22.665  31.925  57.032  0.00  0.00    -0.368 OA
ATOM    107  C4  BDP d 301      19.282  33.083  54.738  0.00  0.00     0.103 C 
ATOM    108  C2  BDP d 301      21.628  33.558  55.451  0.00  0.00     0.110 C 
ATOM    109  O2  BDP d 301      22.589  34.537  55.841  0.00  0.00    -0.388 OA
ATOM    110  O4  BDP d 301      18.032  33.657  54.604  0.00  0.00    -0.348 OA
ATOM    111  O3  BDP d 301      20.458  35.101  54.030  0.00  0.00    -0.390 OA
ATOM    112  H   BDP d 301      18.702  32.691  56.704  0.00  0.00     0.104 H 
ATOM    113  H   BDP d 301      19.913  34.734  55.971  0.00  0.00     0.091 H 
ATOM    114  H   BDP d 301      21.038  33.258  57.395  0.00  0.00     0.133 H 
ATOM    115  H   BDP d 301      22.978  31.361  56.308  0.00  0.00     0.212 HD
ATOM    116  H   BDP d 301      19.622  32.599  53.847  0.00  0.00     0.092 H 
ATOM    117  H   BDP d 301      22.003  33.049  54.588  0.00  0.00     0.094 H 
ATOM    118  H   BDP d 301      22.268  35.012  56.623  0.00  0.00     0.210 HD
ATOM    119  H   BDP d 301      20.796  34.616  53.260  0.00  0.00     0.210 HD
ATOM    120  OSC ASG d 304       3.747  32.011  48.295  0.00  0.00    -0.572 OA
ATOM    121  O3  ASG d 304       7.199  32.323  45.389  0.00  0.00    -0.348 OA
ATOM    122  C5  ASG d 304       7.377  35.058  47.977  0.00  0.00     0.090 C 
ATOM    123  C6  ASG d 304       6.395  35.846  48.809  0.00  0.00     0.043 C 
ATOM    124  O4  ASG d 304       5.914  33.125  47.827  0.00  0.00    -0.246 OA
ATOM    125  C7  ASG d 304      10.372  30.680  46.980  0.00  0.00     0.214 C 
ATOM    126  C8  ASG d 304      11.440  30.135  46.058  0.00  0.00    -0.003 C 
ATOM    127  S   ASG d 304       4.353  33.062  47.503  0.00  0.00     0.252 S 
ATOM    128  OSB ASG d 304       3.730  34.334  47.824  0.00  0.00    -0.572 OA
ATOM    129  N   ASG d 304       9.790  31.843  46.497  0.00  0.00    -0.349 N 
ATOM    130  C4  ASG d 304       6.693  34.038  47.038  0.00  0.00     0.114 C 
ATOM    131  C3  ASG d 304       7.786  33.276  46.261  0.00  0.00     0.094 C 
ATOM    132  C1  ASG d 304       9.316  33.619  48.172  0.00  0.00     0.154 C 
ATOM    133  O7  ASG d 304      10.068  30.146  48.033  0.00  0.00    -0.274 OA
ATOM    134  O6  ASG d 304       7.002  37.036  49.316  0.00  0.00    -0.398 OA
ATOM    135  O5  ASG d 304       8.289  34.370  48.884  0.00  0.00    -0.349 OA
ATOM    136  C2  ASG d 304       8.705  32.566  47.241  0.00  0.00     0.087 C 
ATOM    137  OSA ASG d 304       4.159  32.784  46.089  0.00  0.00    -0.572 OA
ATOM    138  H   ASG d 304       7.901  35.741  47.343  0.00  0.00     0.090 H 
ATOM    139  H   ASG d 304       6.067  35.244  49.630  0.00  0.00     0.078 H 
ATOM    140  H   ASG d 304       5.564  36.119  48.194  0.00  0.00     0.078 H 
ATOM    141  H   ASG d 304      11.530  30.769  45.201  0.00  0.00     0.040 H 
ATOM    142  H   ASG d 304      11.170  29.148  45.745  0.00  0.00     0.040 H 
ATOM    143  H   ASG d 304      12.375  30.101  46.577  0.00  0.00     0.040 H 
ATOM    144  H   ASG d 304      10.099  32.206  45.636  0.00  0.00     0.163 HD
ATOM    145  H   ASG d 304       6.047  34.536  46.345  0.00  0.00     0.093 H 
ATOM    146  H   ASG d 304       8.348  33.977  45.680  0.00  0.00     0.091 H 
ATOM    147  H   ASG d 304       9.878  34.300  47.567  0.00  0.00     0.132 H 
ATOM    148  H   ASG d 304       7.758  36.800  49.877  0.00  0.00     0.209 HD
ATOM    149  H   ASG d 304       8.153  31.848  47.811  0.00  0.00     0.084 H 
ENDROOT
TORSDOF 38
ENDMDL
MODEL 51
REMARK VINA RESULT:      -5.4      5.949     10.881
REMARK  0 active torsions:
REMARK  status: ('A' for Active; 'I' for Inactive)
REMARK       I    between atoms: C6_2  and  C5_74 
REMARK       I    between atoms: C1_3  and  O4_24 
REMARK       I    between atoms: O6_4  and  C6_26 
REMARK       I    between atoms: C5_5  and  C6_12 
REMARK       I    between atoms: C4_6  and  O4_22 
REMARK       I    between atoms: C6_8  and  C5_90 
REMARK       I    between atoms: C6_8  and  O6_83 
REMARK       I    between atoms: O3_11  and  C3_60 
REMARK       I    between atoms: O3_11  and  C1_29 
REMARK       I    between atoms: C5_13  and  C6_18 
REMARK       I    between atoms: O4_14  and  C4_88 
REMARK       I    between atoms: O4_14  and  S_15 
REMARK       I    between atoms: C6_16  and  C5_28 
REMARK       I    between atoms: S_17  and  O4_22 
REMARK       I    between atoms: C6_18  and  O6_66 
REMARK       I    between atoms: O4_20  and  C4_46 
REMARK       I    between atoms: O4_20  and  C1_61 
REMARK       I    between atoms: O4_21  and  C4_54 
REMARK       I    between atoms: O4_21  and  S_40 
REMARK       I    between atoms: O4_24  and  C4_35 
REMARK       I    between atoms: O3_25  and  C3_48 
REMARK       I    between atoms: C6_26  and  C5_50 
REMARK       I    between atoms: C2_27  and  O2_55 
REMARK       I    between atoms: O3_31  and  C3_37 
REMARK       I    between atoms: C2_32  and  N_72 
REMARK       I    between atoms: C7_33  and  C8_39 
REMARK       I    between atoms: C7_33  and  N_52 
REMARK       I    between atoms: C1_34  and  O4_86 
REMARK       I    between atoms: C3_36  and  O3_87 
REMARK       I    between atoms: C2_47  and  O2_85 
REMARK       I    between atoms: N_52  and  C2_71 
REMARK       I    between atoms: C3_53  and  O3_81 
REMARK       I    between atoms: C1_56  and  O3_81 
REMARK       I    between atoms: C7_57  and  C8_64 
REMARK       I    between atoms: C7_57  and  N_63 
REMARK       I    between atoms: C8_58  and  C7_73 
REMARK       I    between atoms: C1_59  and  O1_68 
REMARK       I    between atoms: N_63  and  C2_67 
REMARK       I    between atoms: C4_69  and  O4_86 
REMARK       I    between atoms: N_72  and  C7_73 
REMARK       I    between atoms: C2_77  and  O2_82 
ROOT
ATOM      1  OSB ASG d 302      16.536  38.358  49.633  0.00  0.00    -0.572 OA
ATOM      2  O6  ASG d 302      18.743  34.612  48.996  0.00  0.00    -0.398 OA
ATOM      3  O4  ASG d 302      15.822  36.740  51.381  0.00  0.00    -0.246 OA
ATOM      4  S   ASG d 302      15.497  38.107  50.613  0.00  0.00     0.252 S 
ATOM      5  C6  ASG d 302      17.752  35.488  49.526  0.00  0.00     0.043 C 
ATOM      6  C2  ASG d 302      15.429  34.444  52.976  0.00  0.00     0.087 C 
ATOM      7  C1  ASG d 302      16.742  33.753  52.637  0.00  0.00     0.154 C 
ATOM      8  O5  ASG d 302      17.523  34.515  51.688  0.00  0.00    -0.349 OA
ATOM      9  C5  ASG d 302      16.819  34.740  50.444  0.00  0.00     0.090 C 
ATOM     10  O7  ASG d 302      14.343  35.257  55.515  0.00  0.00    -0.274 OA
ATOM     11  C3  ASG d 302      14.661  34.631  51.680  0.00  0.00     0.094 C 
ATOM     12  C8  ASG d 302      13.386  33.094  55.929  0.00  0.00    -0.003 C 
ATOM     13  OSA ASG d 302      14.211  38.014  49.946  0.00  0.00    -0.572 OA
ATOM     14  N   ASG d 302      14.643  33.602  53.926  0.00  0.00    -0.349 N 
ATOM     15  C7  ASG d 302      14.165  34.113  55.130  0.00  0.00     0.214 C 
ATOM     16  OSC ASG d 302      15.466  39.191  51.568  0.00  0.00    -0.572 OA
ATOM     17  O3  ASG d 302      13.496  35.312  51.982  0.00  0.00    -0.348 OA
ATOM     18  C4  ASG d 302      15.505  35.495  50.729  0.00  0.00     0.114 C 
ATOM     19  H   ASG d 302      19.333  35.109  48.409  0.00  0.00     0.209 HD
ATOM     20  H   ASG d 302      17.189  35.910  48.721  0.00  0.00     0.078 H 
ATOM     21  H   ASG d 302      18.238  36.261  50.083  0.00  0.00     0.078 H 
ATOM     22  H   ASG d 302      15.610  35.390  53.442  0.00  0.00     0.084 H 
ATOM     23  H   ASG d 302      16.502  32.804  52.205  0.00  0.00     0.132 H 
ATOM     24  H   ASG d 302      16.540  33.825  49.964  0.00  0.00     0.090 H 
ATOM     25  H   ASG d 302      14.445  33.689  51.222  0.00  0.00     0.091 H 
ATOM     26  H   ASG d 302      13.045  33.540  56.839  0.00  0.00     0.040 H 
ATOM     27  H   ASG d 302      14.017  32.260  56.155  0.00  0.00     0.040 H 
ATOM     28  H   ASG d 302      12.545  32.760  55.359  0.00  0.00     0.040 H 
ATOM     29  H   ASG d 302      14.457  32.663  53.695  0.00  0.00     0.163 HD
ATOM     30  H   ASG d 302      14.971  35.687  49.821  0.00  0.00     0.093 H 
ATOM     31  C6  BDP d 303      11.211  33.727  48.183  0.00  0.00     0.206 C 
ATOM     32  O4  BDP d 303       8.712  33.956  49.774  0.00  0.00    -0.348 OA
ATOM     33  O3  BDP d 303       8.730  35.426  52.194  0.00  0.00    -0.390 OA
ATOM     34  C3  BDP d 303       9.870  34.692  51.717  0.00  0.00     0.092 C 
ATOM     35  O6B BDP d 303      11.044  34.785  47.543  0.00  0.00    -0.646 OA
ATOM     36  C4  BDP d 303       9.855  34.628  50.183  0.00  0.00     0.103 C 
ATOM     37  C2  BDP d 303      11.134  35.410  52.147  0.00  0.00     0.110 C 
ATOM     38  O6A BDP d 303      11.451  32.571  47.768  0.00  0.00    -0.646 OA
ATOM     39  C1  BDP d 303      12.338  34.644  51.624  0.00  0.00     0.160 C 
ATOM     40  C5  BDP d 303      11.107  33.846  49.702  0.00  0.00     0.152 C 
ATOM     41  O5  BDP d 303      12.303  34.524  50.177  0.00  0.00    -0.340 OA
ATOM     42  O2  BDP d 303      11.211  35.474  53.574  0.00  0.00    -0.388 OA
ATOM     43  H   BDP d 303       8.750  35.459  53.163  0.00  0.00     0.210 HD
ATOM     44  H   BDP d 303       9.837  33.702  52.121  0.00  0.00     0.091 H 
ATOM     45  H   BDP d 303       9.863  35.615  49.772  0.00  0.00     0.092 H 
ATOM     46  H   BDP d 303      11.122  36.405  51.752  0.00  0.00     0.094 H 
ATOM     47  H   BDP d 303      12.317  33.664  52.051  0.00  0.00     0.133 H 
ATOM     48  H   BDP d 303      11.013  32.856  50.100  0.00  0.00     0.104 H 
ATOM     49  H   BDP d 303      11.224  34.575  53.938  0.00  0.00     0.210 HD
ATOM     50  C1  ASG d 306       7.427  34.152  40.665  0.00  0.00     0.151 C 
ATOM     51  C4  ASG d 306       7.871  35.945  38.389  0.00  0.00     0.089 C 
ATOM     52  C6  ASG d 306       7.909  37.798  40.131  0.00  0.00     0.043 C 
ATOM     53  S   ASG d 306       6.165  37.073  36.821  0.00  0.00     0.252 S 
ATOM     54  O4  ASG d 306       6.495  36.212  38.113  0.00  0.00    -0.249 OA
ATOM     55  OSB ASG d 306       4.725  37.211  36.701  0.00  0.00    -0.572 OA
ATOM     56  OSA ASG d 306       6.767  38.388  36.956  0.00  0.00    -0.572 OA
ATOM     57  C3  ASG d 306       8.127  34.410  38.175  0.00  0.00    -0.014 C 
ATOM     58  C7  ASG d 306       6.244  31.332  39.211  0.00  0.00     0.214 C 
ATOM     59  N   ASG d 306       7.346  32.191  39.227  0.00  0.00    -0.352 N 
ATOM     60  C8  ASG d 306       6.643  29.878  39.184  0.00  0.00    -0.003 C 
ATOM     61  C2  ASG d 306       7.171  33.677  39.268  0.00  0.00     0.062 C 
ATOM     62  O5  ASG d 306       7.264  35.587  40.762  0.00  0.00    -0.349 OA
ATOM     63  O6  ASG d 306       8.071  38.101  41.515  0.00  0.00    -0.398 OA
ATOM     64  O7  ASG d 306       5.073  31.700  39.225  0.00  0.00    -0.274 OA
ATOM     65  OSC ASG d 306       6.695  36.415  35.647  0.00  0.00    -0.572 OA
ATOM     66  C5  ASG d 306       8.154  36.328  39.871  0.00  0.00     0.088 C 
ATOM     67  H   ASG d 306       8.434  33.921  40.942  0.00  0.00     0.132 H 
ATOM     68  H   ASG d 306       8.512  36.510  37.744  0.00  0.00     0.089 H 
ATOM     69  H   ASG d 306       6.911  38.046  39.832  0.00  0.00     0.078 H 
ATOM     70  H   ASG d 306       8.618  38.369  39.569  0.00  0.00     0.078 H 
ATOM     71  H   ASG d 306       9.154  34.171  38.351  0.00  0.00     0.040 H 
ATOM     72  H   ASG d 306       7.910  34.100  37.174  0.00  0.00     0.040 H 
ATOM     73  H   ASG d 306       8.255  31.812  39.211  0.00  0.00     0.163 HD
ATOM     74  H   ASG d 306       7.710  29.801  39.175  0.00  0.00     0.040 H 
ATOM     75  H   ASG d 306       6.245  29.415  38.305  0.00  0.00     0.040 H 
ATOM     76  H   ASG d 306       6.257  29.386  40.052  0.00  0.00     0.040 H 
ATOM     77  H   ASG d 306       6.167  33.935  39.000  0.00  0.00     0.080 H 
ATOM     78  H   ASG d 306       7.433  37.589  42.036  0.00  0.00     0.209 HD
ATOM     79  H   ASG d 306       9.182  36.092  40.056  0.00  0.00     0.090 H 
ATOM     80  C5  BDP d 305       6.608  32.369  43.644  0.00  0.00     0.152 C 
ATOM     81  O6B BDP d 305       8.919  32.513  44.034  0.00  0.00    -0.646 OA
ATOM     82  C6  BDP d 305       8.034  31.879  43.429  0.00  0.00     0.206 C 
ATOM     83  O4  BDP d 305       6.534  33.510  41.518  0.00  0.00    -0.348 OA
ATOM     84  O3  BDP d 305       4.495  35.268  42.430  0.00  0.00    -0.390 OA
ATOM     85  C2  BDP d 305       4.714  34.344  44.624  0.00  0.00     0.110 C 
ATOM     86  C1  BDP d 305       5.084  33.079  45.412  0.00  0.00     0.160 C 
ATOM     87  C4  BDP d 305       6.291  33.668  42.868  0.00  0.00     0.103 C 
ATOM     88  O6A BDP d 305       8.136  30.893  42.659  0.00  0.00    -0.646 OA
ATOM     89  C3  BDP d 305       4.829  34.072  43.137  0.00  0.00     0.092 C 
ATOM     90  O2  BDP d 305       3.381  34.724  44.979  0.00  0.00    -0.388 OA
ATOM     91  O5  BDP d 305       6.430  32.627  45.071  0.00  0.00    -0.340 OA
ATOM     92  H   BDP d 305       5.945  31.612  43.282  0.00  0.00     0.104 H 
ATOM     93  H   BDP d 305       3.572  35.505  42.613  0.00  0.00     0.210 HD
ATOM     94  H   BDP d 305       5.381  35.145  44.863  0.00  0.00     0.094 H 
ATOM     95  H   BDP d 305       4.383  32.314  45.151  0.00  0.00     0.133 H 
ATOM     96  H   BDP d 305       6.934  34.451  43.209  0.00  0.00     0.092 H 
ATOM     97  H   BDP d 305       4.169  33.293  42.816  0.00  0.00     0.091 H 
ATOM     98  H   BDP d 305       2.771  34.001  44.765  0.00  0.00     0.210 HD
ATOM     99  O6B BDP d 301      17.316  30.122  54.847  0.00  0.00    -0.646 OA
ATOM    100  C6  BDP d 301      17.231  31.231  55.418  0.00  0.00     0.206 C 
ATOM    101  O6A BDP d 301      16.300  31.711  56.102  0.00  0.00    -0.646 OA
ATOM    102  O5  BDP d 301      19.630  31.376  55.586  0.00  0.00    -0.340 OA
ATOM    103  C5  BDP d 301      18.445  32.139  55.264  0.00  0.00     0.152 C 
ATOM    104  C3  BDP d 301      19.862  33.620  53.822  0.00  0.00     0.092 C 
ATOM    105  C1  BDP d 301      20.860  32.158  55.485  0.00  0.00     0.156 C 
ATOM    106  O1  BDP d 301      21.989  31.244  55.893  0.00  0.00    -0.368 OA
ATOM    107  C4  BDP d 301      18.573  32.761  53.874  0.00  0.00     0.103 C 
ATOM    108  C2  BDP d 301      21.059  32.727  54.111  0.00  0.00     0.110 C 
ATOM    109  O2  BDP d 301      22.276  33.470  54.102  0.00  0.00    -0.388 OA
ATOM    110  O4  BDP d 301      17.486  33.609  53.775  0.00  0.00    -0.348 OA
ATOM    111  O3  BDP d 301      20.013  34.193  52.522  0.00  0.00    -0.390 OA
ATOM    112  H   BDP d 301      18.322  32.961  55.937  0.00  0.00     0.104 H 
ATOM    113  H   BDP d 301      19.796  34.402  54.549  0.00  0.00     0.091 H 
ATOM    114  H   BDP d 301      20.815  33.011  56.129  0.00  0.00     0.133 H 
ATOM    115  H   BDP d 301      22.015  30.478  55.300  0.00  0.00     0.212 HD
ATOM    116  H   BDP d 301      18.610  32.027  53.097  0.00  0.00     0.092 H 
ATOM    117  H   BDP d 301      21.129  31.967  53.361  0.00  0.00     0.094 H 
ATOM    118  H   BDP d 301      22.234  34.167  54.775  0.00  0.00     0.210 HD
ATOM    119  H   BDP d 301      20.072  33.486  51.861  0.00  0.00     0.210 HD
ATOM    120  OSC ASG d 304       2.241  34.578  50.140  0.00  0.00    -0.572 OA
ATOM    121  O3  ASG d 304       5.024  33.334  46.799  0.00  0.00    -0.348 OA
ATOM    122  C5  ASG d 304       6.332  36.401  48.559  0.00  0.00     0.090 C 
ATOM    123  C6  ASG d 304       5.742  37.580  49.292  0.00  0.00     0.043 C 
ATOM    124  O4  ASG d 304       4.467  34.944  49.108  0.00  0.00    -0.246 OA
ATOM    125  C7  ASG d 304       7.990  31.271  48.296  0.00  0.00     0.214 C 
ATOM    126  C8  ASG d 304       8.699  30.278  47.404  0.00  0.00    -0.003 C 
ATOM    127  S   ASG d 304       2.900  35.237  49.031  0.00  0.00     0.252 S 
ATOM    128  OSB ASG d 304       2.660  36.668  49.103  0.00  0.00    -0.572 OA
ATOM    129  N   ASG d 304       7.604  32.419  47.620  0.00  0.00    -0.349 N 
ATOM    130  C4  ASG d 304       5.260  35.428  48.013  0.00  0.00     0.114 C 
ATOM    131  C3  ASG d 304       5.974  34.255  47.310  0.00  0.00     0.094 C 
ATOM    132  C1  ASG d 304       7.890  34.567  48.840  0.00  0.00     0.154 C 
ATOM    133  O7  ASG d 304       7.787  31.071  49.482  0.00  0.00    -0.274 OA
ATOM    134  O6  ASG d 304       6.692  38.642  49.391  0.00  0.00    -0.398 OA
ATOM    135  O5  ASG d 304       7.225  35.699  49.474  0.00  0.00    -0.349 OA
ATOM    136  C2  ASG d 304       6.883  33.546  48.300  0.00  0.00     0.087 C 
ATOM    137  OSA ASG d 304       2.371  34.732  47.775  0.00  0.00    -0.572 OA
ATOM    138  H   ASG d 304       6.862  36.769  47.706  0.00  0.00     0.090 H 
ATOM    139  H   ASG d 304       5.454  37.273  50.276  0.00  0.00     0.078 H 
ATOM    140  H   ASG d 304       4.889  37.930  48.749  0.00  0.00     0.078 H 
ATOM    141  H   ASG d 304       8.759  30.670  46.410  0.00  0.00     0.040 H 
ATOM    142  H   ASG d 304       8.155  29.357  47.391  0.00  0.00     0.040 H 
ATOM    143  H   ASG d 304       9.687  30.103  47.778  0.00  0.00     0.040 H 
ATOM    144  H   ASG d 304       7.810  32.497  46.661  0.00  0.00     0.163 HD
ATOM    145  H   ASG d 304       4.621  35.925  47.313  0.00  0.00     0.093 H 
ATOM    146  H   ASG d 304       6.554  34.641  46.498  0.00  0.00     0.091 H 
ATOM    147  H   ASG d 304       8.461  34.929  48.010  0.00  0.00     0.132 H 
ATOM    148  H   ASG d 304       7.470  38.334  49.883  0.00  0.00     0.209 HD
ATOM    149  H   ASG d 304       6.307  33.139  49.104  0.00  0.00     0.084 H 
ENDROOT
TORSDOF 38
ENDMDL
MODEL 52
REMARK VINA RESULT:      -5.3      6.576     17.633
REMARK  0 active torsions:
REMARK  status: ('A' for Active; 'I' for Inactive)
REMARK       I    between atoms: C6_2  and  C5_74 
REMARK       I    between atoms: C1_3  and  O4_24 
REMARK       I    between atoms: O6_4  and  C6_26 
REMARK       I    between atoms: C5_5  and  C6_12 
REMARK       I    between atoms: C4_6  and  O4_22 
REMARK       I    between atoms: C6_8  and  C5_90 
REMARK       I    between atoms: C6_8  and  O6_83 
REMARK       I    between atoms: O3_11  and  C3_60 
REMARK       I    between atoms: O3_11  and  C1_29 
REMARK       I    between atoms: C5_13  and  C6_18 
REMARK       I    between atoms: O4_14  and  C4_88 
REMARK       I    between atoms: O4_14  and  S_15 
REMARK       I    between atoms: C6_16  and  C5_28 
REMARK       I    between atoms: S_17  and  O4_22 
REMARK       I    between atoms: C6_18  and  O6_66 
REMARK       I    between atoms: O4_20  and  C4_46 
REMARK       I    between atoms: O4_20  and  C1_61 
REMARK       I    between atoms: O4_21  and  C4_54 
REMARK       I    between atoms: O4_21  and  S_40 
REMARK       I    between atoms: O4_24  and  C4_35 
REMARK       I    between atoms: O3_25  and  C3_48 
REMARK       I    between atoms: C6_26  and  C5_50 
REMARK       I    between atoms: C2_27  and  O2_55 
REMARK       I    between atoms: O3_31  and  C3_37 
REMARK       I    between atoms: C2_32  and  N_72 
REMARK       I    between atoms: C7_33  and  C8_39 
REMARK       I    between atoms: C7_33  and  N_52 
REMARK       I    between atoms: C1_34  and  O4_86 
REMARK       I    between atoms: C3_36  and  O3_87 
REMARK       I    between atoms: C2_47  and  O2_85 
REMARK       I    between atoms: N_52  and  C2_71 
REMARK       I    between atoms: C3_53  and  O3_81 
REMARK       I    between atoms: C1_56  and  O3_81 
REMARK       I    between atoms: C7_57  and  C8_64 
REMARK       I    between atoms: C7_57  and  N_63 
REMARK       I    between atoms: C8_58  and  C7_73 
REMARK       I    between atoms: C1_59  and  O1_68 
REMARK       I    between atoms: N_63  and  C2_67 
REMARK       I    between atoms: C4_69  and  O4_86 
REMARK       I    between atoms: N_72  and  C7_73 
REMARK       I    between atoms: C2_77  and  O2_82 
ROOT
ATOM      1  OSB ASG d 302       4.006  39.761  51.778  0.00  0.00    -0.572 OA
ATOM      2  O6  ASG d 302       5.523  36.477  54.273  0.00  0.00    -0.398 OA
ATOM      3  O4  ASG d 302       2.523  37.795  51.442  0.00  0.00    -0.246 OA
ATOM      4  S   ASG d 302       2.995  39.222  50.890  0.00  0.00     0.252 S 
ATOM      5  C6  ASG d 302       4.750  37.122  53.265  0.00  0.00     0.043 C 
ATOM      6  C2  ASG d 302       1.344  35.229  51.476  0.00  0.00     0.087 C 
ATOM      7  C1  ASG d 302       1.926  34.772  52.805  0.00  0.00     0.154 C 
ATOM      8  O5  ASG d 302       2.790  35.775  53.388  0.00  0.00    -0.349 OA
ATOM      9  C5  ASG d 302       3.900  36.120  52.527  0.00  0.00     0.090 C 
ATOM     10  O7  ASG d 302      -1.393  35.460  50.610  0.00  0.00    -0.274 OA
ATOM     11  C3  ASG d 302       2.504  35.540  50.548  0.00  0.00     0.094 C 
ATOM     12  C8  ASG d 302      -1.494  33.157  49.937  0.00  0.00    -0.003 C 
ATOM     13  OSA ASG d 302       3.542  39.087  49.553  0.00  0.00    -0.572 OA
ATOM     14  N   ASG d 302       0.493  34.148  50.895  0.00  0.00    -0.349 N 
ATOM     15  C7  ASG d 302      -0.824  34.384  50.509  0.00  0.00     0.214 C 
ATOM     16  OSC ASG d 302       1.860  40.116  50.858  0.00  0.00    -0.572 OA
ATOM     17  O3  ASG d 302       1.975  36.011  49.361  0.00  0.00    -0.348 OA
ATOM     18  C4  ASG d 302       3.358  36.650  51.183  0.00  0.00     0.114 C 
ATOM     19  H   ASG d 302       6.062  37.135  54.737  0.00  0.00     0.209 HD
ATOM     20  H   ASG d 302       5.408  37.603  52.572  0.00  0.00     0.078 H 
ATOM     21  H   ASG d 302       4.110  37.843  53.729  0.00  0.00     0.078 H 
ATOM     22  H   ASG d 302       0.733  36.097  51.609  0.00  0.00     0.084 H 
ATOM     23  H   ASG d 302       2.499  33.889  52.617  0.00  0.00     0.132 H 
ATOM     24  H   ASG d 302       4.510  35.274  52.290  0.00  0.00     0.090 H 
ATOM     25  H   ASG d 302       3.105  34.670  50.380  0.00  0.00     0.091 H 
ATOM     26  H   ASG d 302      -2.499  33.396  49.659  0.00  0.00     0.040 H 
ATOM     27  H   ASG d 302      -1.503  32.380  50.673  0.00  0.00     0.040 H 
ATOM     28  H   ASG d 302      -0.955  32.825  49.075  0.00  0.00     0.040 H 
ATOM     29  H   ASG d 302       0.872  33.247  50.782  0.00  0.00     0.163 HD
ATOM     30  H   ASG d 302       4.161  36.926  50.531  0.00  0.00     0.093 H 
ATOM     31  C6  BDP d 303       5.764  34.829  46.831  0.00  0.00     0.206 C 
ATOM     32  O4  BDP d 303       3.928  34.476  44.521  0.00  0.00    -0.348 OA
ATOM     33  O3  BDP d 303       1.293  35.503  44.665  0.00  0.00    -0.390 OA
ATOM     34  C3  BDP d 303       2.002  35.006  45.812  0.00  0.00     0.092 C 
ATOM     35  O6B BDP d 303       6.182  35.952  46.482  0.00  0.00    -0.646 OA
ATOM     36  C4  BDP d 303       3.514  35.202  45.628  0.00  0.00     0.103 C 
ATOM     37  C2  BDP d 303       1.571  35.790  47.036  0.00  0.00     0.110 C 
ATOM     38  O6A BDP d 303       6.404  33.798  47.140  0.00  0.00    -0.646 OA
ATOM     39  C1  BDP d 303       2.337  35.277  48.245  0.00  0.00     0.160 C 
ATOM     40  C5  BDP d 303       4.246  34.673  46.890  0.00  0.00     0.152 C 
ATOM     41  O5  BDP d 303       3.772  35.402  48.056  0.00  0.00    -0.340 OA
ATOM     42  O2  BDP d 303       0.170  35.619  47.270  0.00  0.00    -0.388 OA
ATOM     43  H   BDP d 303       0.341  35.373  44.793  0.00  0.00     0.210 HD
ATOM     44  H   BDP d 303       1.785  33.965  45.929  0.00  0.00     0.091 H 
ATOM     45  H   BDP d 303       3.737  36.239  45.486  0.00  0.00     0.092 H 
ATOM     46  H   BDP d 303       1.775  36.828  46.876  0.00  0.00     0.094 H 
ATOM     47  H   BDP d 303       2.096  34.243  48.375  0.00  0.00     0.133 H 
ATOM     48  H   BDP d 303       4.029  33.627  46.946  0.00  0.00     0.104 H 
ATOM     49  H   BDP d 303      -0.021  34.679  47.418  0.00  0.00     0.210 HD
ATOM     50  C1  ASG d 306      12.685  36.061  42.182  0.00  0.00     0.151 C 
ATOM     51  C4  ASG d 306      14.628  38.257  42.173  0.00  0.00     0.089 C 
ATOM     52  C6  ASG d 306      12.589  39.776  42.219  0.00  0.00     0.043 C 
ATOM     53  S   ASG d 306      15.794  39.418  40.190  0.00  0.00     0.252 S 
ATOM     54  O4  ASG d 306      14.718  38.396  40.754  0.00  0.00    -0.249 OA
ATOM     55  OSB ASG d 306      15.750  39.396  38.739  0.00  0.00    -0.572 OA
ATOM     56  OSA ASG d 306      15.480  40.754  40.664  0.00  0.00    -0.572 OA
ATOM     57  C3  ASG d 306      15.142  36.824  42.560  0.00  0.00    -0.014 C 
ATOM     58  C7  ASG d 306      14.510  33.407  41.139  0.00  0.00     0.214 C 
ATOM     59  N   ASG d 306      14.442  34.379  42.140  0.00  0.00    -0.352 N 
ATOM     60  C8  ASG d 306      14.840  32.038  41.680  0.00  0.00    -0.003 C 
ATOM     61  C2  ASG d 306      14.115  35.803  41.818  0.00  0.00     0.062 C 
ATOM     62  O5  ASG d 306      12.313  37.428  41.884  0.00  0.00    -0.349 OA
ATOM     63  O6  ASG d 306      11.194  39.857  42.508  0.00  0.00    -0.398 OA
ATOM     64  O7  ASG d 306      14.317  33.621  39.945  0.00  0.00    -0.274 OA
ATOM     65  OSC ASG d 306      17.113  39.039  40.646  0.00  0.00    -0.572 OA
ATOM     66  C5  ASG d 306      13.134  38.413  42.584  0.00  0.00     0.088 C 
ATOM     67  H   ASG d 306      12.552  35.911  43.233  0.00  0.00     0.132 H 
ATOM     68  H   ASG d 306      15.217  38.997  42.674  0.00  0.00     0.089 H 
ATOM     69  H   ASG d 306      12.742  39.947  41.173  0.00  0.00     0.078 H 
ATOM     70  H   ASG d 306      13.102  40.517  42.796  0.00  0.00     0.078 H 
ATOM     71  H   ASG d 306      15.110  36.685  43.620  0.00  0.00     0.040 H 
ATOM     72  H   ASG d 306      16.157  36.664  42.263  0.00  0.00     0.040 H 
ATOM     73  H   ASG d 306      14.614  34.122  43.075  0.00  0.00     0.163 HD
ATOM     74  H   ASG d 306      14.964  32.095  42.741  0.00  0.00     0.040 H 
ATOM     75  H   ASG d 306      15.746  31.686  41.233  0.00  0.00     0.040 H 
ATOM     76  H   ASG d 306      14.043  31.362  41.450  0.00  0.00     0.040 H 
ATOM     77  H   ASG d 306      14.234  35.978  40.768  0.00  0.00     0.080 H 
ATOM     78  H   ASG d 306      10.717  39.189  41.990  0.00  0.00     0.209 HD
ATOM     79  H   ASG d 306      13.094  38.276  43.645  0.00  0.00     0.090 H 
ATOM     80  C5  BDP d 305      10.017  33.710  41.901  0.00  0.00     0.152 C 
ATOM     81  O6B BDP d 305       9.829  34.067  44.214  0.00  0.00    -0.646 OA
ATOM     82  C6  BDP d 305      10.452  33.443  43.335  0.00  0.00     0.206 C 
ATOM     83  O4  BDP d 305      11.883  35.179  41.464  0.00  0.00    -0.348 OA
ATOM     84  O3  BDP d 305      10.476  36.493  39.373  0.00  0.00    -0.390 OA
ATOM     85  C2  BDP d 305       8.518  35.243  39.938  0.00  0.00     0.110 C 
ATOM     86  C1  BDP d 305       8.013  33.917  40.526  0.00  0.00     0.160 C 
ATOM     87  C4  BDP d 305      10.510  35.074  41.364  0.00  0.00     0.103 C 
ATOM     88  O6A BDP d 305      11.395  32.622  43.450  0.00  0.00    -0.646 OA
ATOM     89  C3  BDP d 305      10.034  35.244  39.908  0.00  0.00     0.092 C 
ATOM     90  O2  BDP d 305       7.975  35.391  38.623  0.00  0.00    -0.388 OA
ATOM     91  O5  BDP d 305       8.557  33.698  41.863  0.00  0.00    -0.340 OA
ATOM     92  H   BDP d 305      10.447  32.951  41.282  0.00  0.00     0.104 H 
ATOM     93  H   BDP d 305      10.166  36.580  38.458  0.00  0.00     0.210 HD
ATOM     94  H   BDP d 305       8.202  36.067  40.541  0.00  0.00     0.094 H 
ATOM     95  H   BDP d 305       8.341  33.127  39.882  0.00  0.00     0.133 H 
ATOM     96  H   BDP d 305      10.094  35.860  41.957  0.00  0.00     0.092 H 
ATOM     97  H   BDP d 305      10.427  34.457  39.301  0.00  0.00     0.091 H 
ATOM     98  H   BDP d 305       8.258  34.646  38.071  0.00  0.00     0.210 HD
ATOM     99  O6B BDP d 301       0.480  30.916  54.003  0.00  0.00    -0.646 OA
ATOM    100  C6  BDP d 301      -0.290  31.893  53.870  0.00  0.00     0.206 C 
ATOM    101  O6A BDP d 301      -1.134  32.132  52.979  0.00  0.00    -0.646 OA
ATOM    102  O5  BDP d 301      -0.252  32.300  56.244  0.00  0.00    -0.340 OA
ATOM    103  C5  BDP d 301      -0.189  32.955  54.957  0.00  0.00     0.152 C 
ATOM    104  C3  BDP d 301       1.087  34.822  56.037  0.00  0.00     0.092 C 
ATOM    105  C1  BDP d 301      -0.179  33.232  57.366  0.00  0.00     0.156 C 
ATOM    106  O1  BDP d 301      -0.305  32.408  58.624  0.00  0.00    -0.368 OA
ATOM    107  C4  BDP d 301       1.070  33.816  54.859  0.00  0.00     0.103 C 
ATOM    108  C2  BDP d 301       1.081  34.047  57.346  0.00  0.00     0.110 C 
ATOM    109  O2  BDP d 301       1.070  34.924  58.470  0.00  0.00    -0.388 OA
ATOM    110  O4  BDP d 301       0.910  34.529  53.686  0.00  0.00    -0.348 OA
ATOM    111  O3  BDP d 301       2.269  35.623  55.978  0.00  0.00    -0.390 OA
ATOM    112  H   BDP d 301      -1.009  33.630  54.828  0.00  0.00     0.104 H 
ATOM    113  H   BDP d 301       0.227  35.456  55.975  0.00  0.00     0.091 H 
ATOM    114  H   BDP d 301      -0.970  33.951  57.308  0.00  0.00     0.133 H 
ATOM    115  H   BDP d 301       0.418  31.762  58.661  0.00  0.00     0.212 HD
ATOM    116  H   BDP d 301       1.968  33.236  54.882  0.00  0.00     0.092 H 
ATOM    117  H   BDP d 301       1.960  33.439  57.407  0.00  0.00     0.094 H 
ATOM    118  H   BDP d 301       0.279  35.485  58.433  0.00  0.00     0.210 HD
ATOM    119  H   BDP d 301       3.050  35.051  56.033  0.00  0.00     0.210 HD
ATOM    120  OSC ASG d 304       2.842  34.230  38.106  0.00  0.00    -0.572 OA
ATOM    121  O3  ASG d 304       6.603  33.923  40.599  0.00  0.00    -0.348 OA
ATOM    122  C5  ASG d 304       4.446  36.782  41.777  0.00  0.00     0.090 C 
ATOM    123  C6  ASG d 304       3.457  37.737  41.155  0.00  0.00     0.043 C 
ATOM    124  O4  ASG d 304       3.997  35.036  40.148  0.00  0.00    -0.246 OA
ATOM    125  C7  ASG d 304       5.796  32.013  43.916  0.00  0.00     0.214 C 
ATOM    126  C8  ASG d 304       6.918  31.281  44.617  0.00  0.00    -0.003 C 
ATOM    127  S   ASG d 304       3.870  35.144  38.561  0.00  0.00     0.252 S 
ATOM    128  OSB ASG d 304       3.516  36.501  38.184  0.00  0.00    -0.572 OA
ATOM    129  N   ASG d 304       6.211  33.204  43.337  0.00  0.00    -0.349 N 
ATOM    130  C4  ASG d 304       5.056  35.793  40.756  0.00  0.00     0.114 C 
ATOM    131  C3  ASG d 304       6.025  34.853  41.501  0.00  0.00     0.094 C 
ATOM    132  C1  ASG d 304       4.653  35.132  43.538  0.00  0.00     0.154 C 
ATOM    133  O7  ASG d 304       4.652  31.591  43.873  0.00  0.00    -0.274 OA
ATOM    134  O6  ASG d 304       3.257  38.875  41.996  0.00  0.00    -0.398 OA
ATOM    135  O5  ASG d 304       3.763  36.049  42.837  0.00  0.00    -0.349 OA
ATOM    136  C2  ASG d 304       5.271  34.102  42.587  0.00  0.00     0.087 C 
ATOM    137  OSA ASG d 304       5.141  34.798  37.946  0.00  0.00    -0.572 OA
ATOM    138  H   ASG d 304       5.264  37.351  42.163  0.00  0.00     0.090 H 
ATOM    139  H   ASG d 304       2.523  37.235  41.017  0.00  0.00     0.078 H 
ATOM    140  H   ASG d 304       3.843  38.068  40.215  0.00  0.00     0.078 H 
ATOM    141  H   ASG d 304       7.824  31.842  44.521  0.00  0.00     0.040 H 
ATOM    142  H   ASG d 304       7.046  30.317  44.173  0.00  0.00     0.040 H 
ATOM    143  H   ASG d 304       6.677  31.168  45.653  0.00  0.00     0.040 H 
ATOM    144  H   ASG d 304       7.156  33.469  43.423  0.00  0.00     0.163 HD
ATOM    145  H   ASG d 304       5.589  36.319  39.992  0.00  0.00     0.093 H 
ATOM    146  H   ASG d 304       6.805  35.440  41.941  0.00  0.00     0.091 H 
ATOM    147  H   ASG d 304       5.454  35.697  43.969  0.00  0.00     0.132 H 
ATOM    148  H   ASG d 304       2.906  38.586  42.853  0.00  0.00     0.209 HD
ATOM    149  H   ASG d 304       4.504  33.496  42.152  0.00  0.00     0.084 H 
ENDROOT
TORSDOF 38
ENDMDL
MODEL 53
REMARK VINA RESULT:      -5.3      4.068     15.483
REMARK  0 active torsions:
REMARK  status: ('A' for Active; 'I' for Inactive)
REMARK       I    between atoms: C6_2  and  C5_74 
REMARK       I    between atoms: C1_3  and  O4_24 
REMARK       I    between atoms: O6_4  and  C6_26 
REMARK       I    between atoms: C5_5  and  C6_12 
REMARK       I    between atoms: C4_6  and  O4_22 
REMARK       I    between atoms: C6_8  and  C5_90 
REMARK       I    between atoms: C6_8  and  O6_83 
REMARK       I    between atoms: O3_11  and  C3_60 
REMARK       I    between atoms: O3_11  and  C1_29 
REMARK       I    between atoms: C5_13  and  C6_18 
REMARK       I    between atoms: O4_14  and  C4_88 
REMARK       I    between atoms: O4_14  and  S_15 
REMARK       I    between atoms: C6_16  and  C5_28 
REMARK       I    between atoms: S_17  and  O4_22 
REMARK       I    between atoms: C6_18  and  O6_66 
REMARK       I    between atoms: O4_20  and  C4_46 
REMARK       I    between atoms: O4_20  and  C1_61 
REMARK       I    between atoms: O4_21  and  C4_54 
REMARK       I    between atoms: O4_21  and  S_40 
REMARK       I    between atoms: O4_24  and  C4_35 
REMARK       I    between atoms: O3_25  and  C3_48 
REMARK       I    between atoms: C6_26  and  C5_50 
REMARK       I    between atoms: C2_27  and  O2_55 
REMARK       I    between atoms: O3_31  and  C3_37 
REMARK       I    between atoms: C2_32  and  N_72 
REMARK       I    between atoms: C7_33  and  C8_39 
REMARK       I    between atoms: C7_33  and  N_52 
REMARK       I    between atoms: C1_34  and  O4_86 
REMARK       I    between atoms: C3_36  and  O3_87 
REMARK       I    between atoms: C2_47  and  O2_85 
REMARK       I    between atoms: N_52  and  C2_71 
REMARK       I    between atoms: C3_53  and  O3_81 
REMARK       I    between atoms: C1_56  and  O3_81 
REMARK       I    between atoms: C7_57  and  C8_64 
REMARK       I    between atoms: C7_57  and  N_63 
REMARK       I    between atoms: C8_58  and  C7_73 
REMARK       I    between atoms: C1_59  and  O1_68 
REMARK       I    between atoms: N_63  and  C2_67 
REMARK       I    between atoms: C4_69  and  O4_86 
REMARK       I    between atoms: N_72  and  C7_73 
REMARK       I    between atoms: C2_77  and  O2_82 
ROOT
ATOM      1  OSB ASG d 302       6.852  30.344  51.705  0.00  0.00    -0.572 OA
ATOM      2  O6  ASG d 302       4.917  33.640  49.537  0.00  0.00    -0.398 OA
ATOM      3  O4  ASG d 302       6.509  32.216  53.304  0.00  0.00    -0.246 OA
ATOM      4  S   ASG d 302       7.273  30.842  53.000  0.00  0.00     0.252 S 
ATOM      5  C6  ASG d 302       5.603  32.978  50.595  0.00  0.00     0.043 C 
ATOM      6  C2  ASG d 302       5.902  34.695  54.513  0.00  0.00     0.087 C 
ATOM      7  C1  ASG d 302       4.858  35.147  53.502  0.00  0.00     0.154 C 
ATOM      8  O5  ASG d 302       4.691  34.186  52.434  0.00  0.00    -0.349 OA
ATOM      9  C5  ASG d 302       5.919  33.943  51.708  0.00  0.00     0.090 C 
ATOM     10  O7  ASG d 302       5.708  34.309  57.360  0.00  0.00    -0.274 OA
ATOM     11  C3  ASG d 302       7.209  34.493  53.767  0.00  0.00     0.094 C 
ATOM     12  C8  ASG d 302       6.169  36.621  57.820  0.00  0.00    -0.003 C 
ATOM     13  OSA ASG d 302       8.708  31.056  52.996  0.00  0.00    -0.572 OA
ATOM     14  N   ASG d 302       6.068  35.734  55.572  0.00  0.00    -0.349 N 
ATOM     15  C7  ASG d 302       5.953  35.423  56.924  0.00  0.00     0.214 C 
ATOM     16  OSC ASG d 302       6.933  29.876  54.019  0.00  0.00    -0.572 OA
ATOM     17  O3  ASG d 302       8.139  34.025  54.675  0.00  0.00    -0.348 OA
ATOM     18  C4  ASG d 302       6.995  33.422  52.683  0.00  0.00     0.114 C 
ATOM     19  H   ASG d 302       4.722  33.005  48.831  0.00  0.00     0.209 HD
ATOM     20  H   ASG d 302       6.515  32.564  50.219  0.00  0.00     0.078 H 
ATOM     21  H   ASG d 302       4.975  32.201  50.980  0.00  0.00     0.078 H 
ATOM     22  H   ASG d 302       5.600  33.784  54.986  0.00  0.00     0.084 H 
ATOM     23  H   ASG d 302       5.196  36.072  53.086  0.00  0.00     0.132 H 
ATOM     24  H   ASG d 302       6.317  34.836  51.274  0.00  0.00     0.090 H 
ATOM     25  H   ASG d 302       7.538  35.406  53.317  0.00  0.00     0.091 H 
ATOM     26  H   ASG d 302       6.069  36.324  58.843  0.00  0.00     0.040 H 
ATOM     27  H   ASG d 302       5.440  37.371  57.594  0.00  0.00     0.040 H 
ATOM     28  H   ASG d 302       7.150  37.015  57.658  0.00  0.00     0.040 H 
ATOM     29  H   ASG d 302       6.263  36.662  55.308  0.00  0.00     0.163 HD
ATOM     30  H   ASG d 302       7.911  33.221  52.168  0.00  0.00     0.093 H 
ATOM     31  C6  BDP d 303      11.821  35.539  52.163  0.00  0.00     0.206 C 
ATOM     32  O4  BDP d 303      13.267  35.842  54.741  0.00  0.00    -0.348 OA
ATOM     33  O3  BDP d 303      12.217  34.637  57.078  0.00  0.00    -0.390 OA
ATOM     34  C3  BDP d 303      11.387  35.143  56.019  0.00  0.00     0.092 C 
ATOM     35  O6B BDP d 303      12.360  34.458  51.848  0.00  0.00    -0.646 OA
ATOM     36  C4  BDP d 303      12.127  35.054  54.677  0.00  0.00     0.103 C 
ATOM     37  C2  BDP d 303      10.135  34.293  55.925  0.00  0.00     0.110 C 
ATOM     38  O6A BDP d 303      11.715  36.600  51.506  0.00  0.00    -0.646 OA
ATOM     39  C1  BDP d 303       9.268  34.817  54.791  0.00  0.00     0.160 C 
ATOM     40  C5  BDP d 303      11.198  35.591  53.556  0.00  0.00     0.152 C 
ATOM     41  O5  BDP d 303       9.980  34.795  53.525  0.00  0.00    -0.340 OA
ATOM     42  O2  BDP d 303       9.392  34.362  57.145  0.00  0.00    -0.388 OA
ATOM     43  H   BDP d 303      11.740  34.698  57.920  0.00  0.00     0.210 HD
ATOM     44  H   BDP d 303      11.142  36.163  56.230  0.00  0.00     0.091 H 
ATOM     45  H   BDP d 303      12.398  34.040  54.471  0.00  0.00     0.092 H 
ATOM     46  H   BDP d 303      10.416  33.276  55.743  0.00  0.00     0.094 H 
ATOM     47  H   BDP d 303       9.003  35.828  55.019  0.00  0.00     0.133 H 
ATOM     48  H   BDP d 303      11.008  36.618  53.789  0.00  0.00     0.104 H 
ATOM     49  H   BDP d 303       9.133  35.282  57.315  0.00  0.00     0.210 HD
ATOM     50  C1  ASG d 306      18.756  34.922  47.414  0.00  0.00     0.151 C 
ATOM     51  C4  ASG d 306      19.602  32.864  45.506  0.00  0.00     0.089 C 
ATOM     52  C6  ASG d 306      18.890  31.210  47.302  0.00  0.00     0.043 C 
ATOM     53  S   ASG d 306      21.935  31.848  45.103  0.00  0.00     0.252 S 
ATOM     54  O4  ASG d 306      20.959  32.776  45.942  0.00  0.00    -0.249 OA
ATOM     55  OSB ASG d 306      23.264  31.912  45.685  0.00  0.00    -0.572 OA
ATOM     56  OSA ASG d 306      21.453  30.479  45.151  0.00  0.00    -0.572 OA
ATOM     57  C3  ASG d 306      19.354  34.315  44.957  0.00  0.00    -0.014 C 
ATOM     58  C7  ASG d 306      20.253  37.725  46.243  0.00  0.00     0.214 C 
ATOM     59  N   ASG d 306      19.352  36.719  45.885  0.00  0.00    -0.352 N 
ATOM     60  C8  ASG d 306      19.797  39.095  45.805  0.00  0.00    -0.003 C 
ATOM     61  C2  ASG d 306      19.608  35.287  46.237  0.00  0.00     0.062 C 
ATOM     62  O5  ASG d 306      18.970  33.544  47.800  0.00  0.00    -0.349 OA
ATOM     63  O6  ASG d 306      18.111  31.027  48.484  0.00  0.00    -0.398 OA
ATOM     64  O7  ASG d 306      21.301  37.538  46.855  0.00  0.00    -0.274 OA
ATOM     65  OSC ASG d 306      21.978  32.299  43.730  0.00  0.00    -0.572 OA
ATOM     66  C5  ASG d 306      18.678  32.595  46.730  0.00  0.00     0.088 C 
ATOM     67  H   ASG d 306      17.724  35.030  47.154  0.00  0.00     0.132 H 
ATOM     68  H   ASG d 306      19.395  32.149  44.736  0.00  0.00     0.089 H 
ATOM     69  H   ASG d 306      19.926  31.084  47.541  0.00  0.00     0.078 H 
ATOM     70  H   ASG d 306      18.584  30.487  46.575  0.00  0.00     0.078 H 
ATOM     71  H   ASG d 306      18.351  34.417  44.599  0.00  0.00     0.040 H 
ATOM     72  H   ASG d 306      19.996  34.552  44.135  0.00  0.00     0.040 H 
ATOM     73  H   ASG d 306      18.534  36.957  45.391  0.00  0.00     0.163 HD
ATOM     74  H   ASG d 306      18.862  39.012  45.293  0.00  0.00     0.040 H 
ATOM     75  H   ASG d 306      20.527  39.521  45.149  0.00  0.00     0.040 H 
ATOM     76  H   ASG d 306      19.680  39.723  46.663  0.00  0.00     0.040 H 
ATOM     77  H   ASG d 306      20.635  35.154  46.507  0.00  0.00     0.080 H 
ATOM     78  H   ASG d 306      18.379  31.677  49.152  0.00  0.00     0.209 HD
ATOM     79  H   ASG d 306      17.671  32.694  46.379  0.00  0.00     0.090 H 
ATOM     80  C5  BDP d 305      17.903  37.097  50.110  0.00  0.00     0.152 C 
ATOM     81  O6B BDP d 305      15.707  36.655  49.406  0.00  0.00    -0.646 OA
ATOM     82  C6  BDP d 305      16.719  37.347  49.187  0.00  0.00     0.206 C 
ATOM     83  O4  BDP d 305      19.078  35.772  48.468  0.00  0.00    -0.348 OA
ATOM     84  O3  BDP d 305      20.570  34.434  50.484  0.00  0.00    -0.390 OA
ATOM     85  C2  BDP d 305      19.256  35.532  52.152  0.00  0.00     0.110 C 
ATOM     86  C1  BDP d 305      18.451  36.801  52.468  0.00  0.00     0.160 C 
ATOM     87  C4  BDP d 305      18.659  35.788  49.784  0.00  0.00     0.103 C 
ATOM     88  O6A BDP d 305      16.916  38.225  48.311  0.00  0.00    -0.646 OA
ATOM     89  C3  BDP d 305      19.842  35.633  50.758  0.00  0.00     0.092 C 
ATOM     90  O2  BDP d 305      20.283  35.390  53.136  0.00  0.00    -0.388 OA
ATOM     91  O5  BDP d 305      17.399  37.013  51.478  0.00  0.00    -0.340 OA
ATOM     92  H   BDP d 305      18.595  37.903  49.979  0.00  0.00     0.104 H 
ATOM     93  H   BDP d 305      21.310  34.356  51.107  0.00  0.00     0.210 HD
ATOM     94  H   BDP d 305      18.624  34.669  52.179  0.00  0.00     0.094 H 
ATOM     95  H   BDP d 305      19.126  37.631  52.443  0.00  0.00     0.133 H 
ATOM     96  H   BDP d 305      17.998  34.957  49.909  0.00  0.00     0.092 H 
ATOM     97  H   BDP d 305      20.508  36.464  50.658  0.00  0.00     0.091 H 
ATOM     98  H   BDP d 305      20.859  36.170  53.117  0.00  0.00     0.210 HD
ATOM     99  O6B BDP d 301       3.003  38.857  54.591  0.00  0.00    -0.646 OA
ATOM    100  C6  BDP d 301       2.896  37.836  55.305  0.00  0.00     0.206 C 
ATOM    101  O6A BDP d 301       3.423  37.570  56.407  0.00  0.00    -0.646 OA
ATOM    102  O5  BDP d 301       0.729  37.356  54.367  0.00  0.00    -0.340 OA
ATOM    103  C5  BDP d 301       1.982  36.748  54.754  0.00  0.00     0.152 C 
ATOM    104  C3  BDP d 301       1.553  34.937  53.076  0.00  0.00     0.092 C 
ATOM    105  C1  BDP d 301      -0.234  36.395  53.836  0.00  0.00     0.156 C 
ATOM    106  O1  BDP d 301      -1.492  37.169  53.526  0.00  0.00    -0.368 OA
ATOM    107  C4  BDP d 301       2.585  35.977  53.581  0.00  0.00     0.103 C 
ATOM    108  C2  BDP d 301       0.294  35.668  52.634  0.00  0.00     0.110 C 
ATOM    109  O2  BDP d 301      -0.705  34.756  52.183  0.00  0.00    -0.388 OA
ATOM    110  O4  BDP d 301       3.653  35.293  54.129  0.00  0.00    -0.348 OA
ATOM    111  O3  BDP d 301       2.088  34.219  51.962  0.00  0.00    -0.390 OA
ATOM    112  H   BDP d 301       1.836  36.025  55.528  0.00  0.00     0.104 H 
ATOM    113  H   BDP d 301       1.328  34.250  53.864  0.00  0.00     0.091 H 
ATOM    114  H   BDP d 301      -0.432  35.627  54.554  0.00  0.00     0.133 H 
ATOM    115  H   BDP d 301      -1.295  37.860  52.875  0.00  0.00     0.212 HD
ATOM    116  H   BDP d 301       2.864  36.615  52.769  0.00  0.00     0.092 H 
ATOM    117  H   BDP d 301       0.528  36.330  51.827  0.00  0.00     0.094 H 
ATOM    118  H   BDP d 301      -0.932  34.145  52.900  0.00  0.00     0.210 HD
ATOM    119  H   BDP d 301       2.294  34.841  51.246  0.00  0.00     0.210 HD
ATOM    120  OSC ASG d 304      18.805  36.221  58.145  0.00  0.00    -0.572 OA
ATOM    121  O3  ASG d 304      17.863  36.699  53.747  0.00  0.00    -0.348 OA
ATOM    122  C5  ASG d 304      16.130  33.665  55.165  0.00  0.00     0.090 C 
ATOM    123  C6  ASG d 304      16.394  32.666  56.265  0.00  0.00     0.043 C 
ATOM    124  O4  ASG d 304      17.380  35.428  56.275  0.00  0.00    -0.246 OA
ATOM    125  C7  ASG d 304      14.384  38.442  53.359  0.00  0.00     0.214 C 
ATOM    126  C8  ASG d 304      14.107  39.225  52.095  0.00  0.00    -0.003 C 
ATOM    127  S   ASG d 304      18.812  35.363  56.977  0.00  0.00     0.252 S 
ATOM    128  OSB ASG d 304      19.105  33.999  57.377  0.00  0.00    -0.572 OA
ATOM    129  N   ASG d 304      15.139  37.301  53.128  0.00  0.00    -0.349 N 
ATOM    130  C4  ASG d 304      17.249  34.725  55.029  0.00  0.00     0.114 C 
ATOM    131  C3  ASG d 304      16.863  35.704  53.901  0.00  0.00     0.094 C 
ATOM    132  C1  ASG d 304      14.482  35.268  54.401  0.00  0.00     0.154 C 
ATOM    133  O7  ASG d 304      13.978  38.788  54.456  0.00  0.00    -0.274 OA
ATOM    134  O6  ASG d 304      15.603  31.491  56.081  0.00  0.00    -0.398 OA
ATOM    135  O5  ASG d 304      14.854  34.316  55.441  0.00  0.00    -0.349 OA
ATOM    136  C2  ASG d 304      15.537  36.367  54.234  0.00  0.00     0.087 C 
ATOM    137  OSA ASG d 304      19.833  35.813  56.045  0.00  0.00    -0.572 OA
ATOM    138  H   ASG d 304      16.105  33.139  54.234  0.00  0.00     0.090 H 
ATOM    139  H   ASG d 304      16.150  33.109  57.208  0.00  0.00     0.078 H 
ATOM    140  H   ASG d 304      17.428  32.392  56.240  0.00  0.00     0.078 H 
ATOM    141  H   ASG d 304      14.562  38.730  51.262  0.00  0.00     0.040 H 
ATOM    142  H   ASG d 304      14.514  40.210  52.189  0.00  0.00     0.040 H 
ATOM    143  H   ASG d 304      13.051  39.289  51.939  0.00  0.00     0.040 H 
ATOM    144  H   ASG d 304      15.422  37.098  52.208  0.00  0.00     0.163 HD
ATOM    145  H   ASG d 304      18.183  34.261  54.792  0.00  0.00     0.093 H 
ATOM    146  H   ASG d 304      16.775  35.156  52.985  0.00  0.00     0.091 H 
ATOM    147  H   ASG d 304      14.409  34.744  53.471  0.00  0.00     0.132 H 
ATOM    148  H   ASG d 304      14.662  31.729  56.102  0.00  0.00     0.209 HD
ATOM    149  H   ASG d 304      15.624  36.934  55.137  0.00  0.00     0.084 H 
ENDROOT
TORSDOF 38
ENDMDL
MODEL 54
REMARK VINA RESULT:      -5.2      4.038     15.659
REMARK  0 active torsions:
REMARK  status: ('A' for Active; 'I' for Inactive)
REMARK       I    between atoms: C6_2  and  C5_74 
REMARK       I    between atoms: C1_3  and  O4_24 
REMARK       I    between atoms: O6_4  and  C6_26 
REMARK       I    between atoms: C5_5  and  C6_12 
REMARK       I    between atoms: C4_6  and  O4_22 
REMARK       I    between atoms: C6_8  and  C5_90 
REMARK       I    between atoms: C6_8  and  O6_83 
REMARK       I    between atoms: O3_11  and  C3_60 
REMARK       I    between atoms: O3_11  and  C1_29 
REMARK       I    between atoms: C5_13  and  C6_18 
REMARK       I    between atoms: O4_14  and  C4_88 
REMARK       I    between atoms: O4_14  and  S_15 
REMARK       I    between atoms: C6_16  and  C5_28 
REMARK       I    between atoms: S_17  and  O4_22 
REMARK       I    between atoms: C6_18  and  O6_66 
REMARK       I    between atoms: O4_20  and  C4_46 
REMARK       I    between atoms: O4_20  and  C1_61 
REMARK       I    between atoms: O4_21  and  C4_54 
REMARK       I    between atoms: O4_21  and  S_40 
REMARK       I    between atoms: O4_24  and  C4_35 
REMARK       I    between atoms: O3_25  and  C3_48 
REMARK       I    between atoms: C6_26  and  C5_50 
REMARK       I    between atoms: C2_27  and  O2_55 
REMARK       I    between atoms: O3_31  and  C3_37 
REMARK       I    between atoms: C2_32  and  N_72 
REMARK       I    between atoms: C7_33  and  C8_39 
REMARK       I    between atoms: C7_33  and  N_52 
REMARK       I    between atoms: C1_34  and  O4_86 
REMARK       I    between atoms: C3_36  and  O3_87 
REMARK       I    between atoms: C2_47  and  O2_85 
REMARK       I    between atoms: N_52  and  C2_71 
REMARK       I    between atoms: C3_53  and  O3_81 
REMARK       I    between atoms: C1_56  and  O3_81 
REMARK       I    between atoms: C7_57  and  C8_64 
REMARK       I    between atoms: C7_57  and  N_63 
REMARK       I    between atoms: C8_58  and  C7_73 
REMARK       I    between atoms: C1_59  and  O1_68 
REMARK       I    between atoms: N_63  and  C2_67 
REMARK       I    between atoms: C4_69  and  O4_86 
REMARK       I    between atoms: N_72  and  C7_73 
REMARK       I    between atoms: C2_77  and  O2_82 
ROOT
ATOM      1  OSB ASG d 302       9.690  38.668  53.007  0.00  0.00    -0.572 OA
ATOM      2  O6  ASG d 302      10.565  35.164  55.511  0.00  0.00    -0.398 OA
ATOM      3  O4  ASG d 302       8.238  36.799  52.245  0.00  0.00    -0.246 OA
ATOM      4  S   ASG d 302       8.858  38.234  51.901  0.00  0.00     0.252 S 
ATOM      5  C6  ASG d 302      10.032  35.908  54.418  0.00  0.00     0.043 C 
ATOM      6  C2  ASG d 302       6.990  34.296  51.862  0.00  0.00     0.087 C 
ATOM      7  C1  ASG d 302       7.278  33.728  53.244  0.00  0.00     0.154 C 
ATOM      8  O5  ASG d 302       8.042  34.650  54.056  0.00  0.00    -0.349 OA
ATOM      9  C5  ASG d 302       9.312  34.996  53.457  0.00  0.00     0.090 C 
ATOM     10  O7  ASG d 302       4.491  34.710  50.493  0.00  0.00    -0.274 OA
ATOM     11  C3  ASG d 302       8.322  34.609  51.206  0.00  0.00     0.094 C 
ATOM     12  C8  ASG d 302       4.448  32.462  49.650  0.00  0.00    -0.003 C 
ATOM     13  OSA ASG d 302       9.657  38.159  50.692  0.00  0.00    -0.572 OA
ATOM     14  N   ASG d 302       6.236  33.295  51.049  0.00  0.00    -0.349 N 
ATOM     15  C7  ASG d 302       5.031  33.617  50.429  0.00  0.00     0.214 C 
ATOM     16  OSC ASG d 302       7.784  39.182  51.709  0.00  0.00    -0.572 OA
ATOM     17  O3  ASG d 302       8.056  35.179  49.975  0.00  0.00    -0.348 OA
ATOM     18  C4  ASG d 302       9.069  35.635  52.074  0.00  0.00     0.114 C 
ATOM     19  H   ASG d 302      11.023  35.765  56.118  0.00  0.00     0.209 HD
ATOM     20  H   ASG d 302      10.831  36.400  53.905  0.00  0.00     0.078 H 
ATOM     21  H   ASG d 302       9.336  36.627  54.797  0.00  0.00     0.078 H 
ATOM     22  H   ASG d 302       6.394  35.181  51.934  0.00  0.00     0.084 H 
ATOM     23  H   ASG d 302       7.847  32.832  53.110  0.00  0.00     0.132 H 
ATOM     24  H   ASG d 302       9.928  34.138  53.286  0.00  0.00     0.090 H 
ATOM     25  H   ASG d 302       8.914  33.724  51.097  0.00  0.00     0.091 H 
ATOM     26  H   ASG d 302       3.528  32.766  49.197  0.00  0.00     0.040 H 
ATOM     27  H   ASG d 302       4.265  31.641  50.313  0.00  0.00     0.040 H 
ATOM     28  H   ASG d 302       5.137  32.160  48.890  0.00  0.00     0.040 H 
ATOM     29  H   ASG d 302       6.599  32.386  50.949  0.00  0.00     0.163 HD
ATOM     30  H   ASG d 302       9.994  35.914  51.615  0.00  0.00     0.093 H 
ATOM     31  C6  BDP d 303      12.233  33.981  48.163  0.00  0.00     0.206 C 
ATOM     32  O4  BDP d 303      10.884  33.863  45.518  0.00  0.00    -0.348 OA
ATOM     33  O3  BDP d 303       8.311  35.002  45.213  0.00  0.00    -0.390 OA
ATOM     34  C3  BDP d 303       8.758  34.401  46.439  0.00  0.00     0.092 C 
ATOM     35  O6B BDP d 303      12.750  35.102  47.985  0.00  0.00    -0.646 OA
ATOM     36  C4  BDP d 303      10.282  34.536  46.570  0.00  0.00     0.103 C 
ATOM     37  C2  BDP d 303       8.118  35.125  47.606  0.00  0.00     0.110 C 
ATOM     38  O6A BDP d 303      12.763  32.903  48.518  0.00  0.00    -0.646 OA
ATOM     39  C1  BDP d 303       8.609  34.501  48.903  0.00  0.00     0.160 C 
ATOM     40  C5  BDP d 303      10.729  33.894  47.911  0.00  0.00     0.152 C 
ATOM     41  O5  BDP d 303      10.056  34.569  49.010  0.00  0.00    -0.340 OA
ATOM     42  O2  BDP d 303       6.693  35.006  47.547  0.00  0.00    -0.388 OA
ATOM     43  H   BDP d 303       7.348  34.910  45.141  0.00  0.00     0.210 HD
ATOM     44  H   BDP d 303       8.487  33.366  46.435  0.00  0.00     0.091 H 
ATOM     45  H   BDP d 303      10.564  35.568  46.550  0.00  0.00     0.092 H 
ATOM     46  H   BDP d 303       8.385  36.161  47.564  0.00  0.00     0.094 H 
ATOM     47  H   BDP d 303       8.312  33.474  48.908  0.00  0.00     0.133 H 
ATOM     48  H   BDP d 303      10.470  32.858  47.848  0.00  0.00     0.104 H 
ATOM     49  H   BDP d 303       6.445  34.069  47.586  0.00  0.00     0.210 HD
ATOM     50  C1  ASG d 306      19.980  35.176  45.070  0.00  0.00     0.151 C 
ATOM     51  C4  ASG d 306      21.959  37.272  45.601  0.00  0.00     0.089 C 
ATOM     52  C6  ASG d 306      20.005  38.881  45.352  0.00  0.00     0.043 C 
ATOM     53  S   ASG d 306      23.537  38.500  43.975  0.00  0.00     0.252 S 
ATOM     54  O4  ASG d 306      22.336  37.497  44.241  0.00  0.00    -0.249 OA
ATOM     55  OSB ASG d 306      23.783  38.573  42.546  0.00  0.00    -0.572 OA
ATOM     56  OSA ASG d 306      23.180  39.817  44.472  0.00  0.00    -0.572 OA
ATOM     57  C3  ASG d 306      22.337  35.795  45.978  0.00  0.00    -0.014 C 
ATOM     58  C7  ASG d 306      21.886  32.509  44.219  0.00  0.00     0.214 C 
ATOM     59  N   ASG d 306      21.653  33.418  45.255  0.00  0.00    -0.352 N 
ATOM     60  C8  ASG d 306      22.054  31.095  44.716  0.00  0.00    -0.003 C 
ATOM     61  C2  ASG d 306      21.445  34.874  44.977  0.00  0.00     0.062 C 
ATOM     62  O5  ASG d 306      19.722  36.574  44.803  0.00  0.00    -0.349 OA
ATOM     63  O6  ASG d 306      18.584  39.009  45.366  0.00  0.00    -0.398 OA
ATOM     64  O7  ASG d 306      21.944  32.807  43.030  0.00  0.00    -0.274 OA
ATOM     65  OSC ASG d 306      24.725  38.031  44.654  0.00  0.00    -0.572 OA
ATOM     66  C5  ASG d 306      20.420  37.473  45.719  0.00  0.00     0.088 C 
ATOM     67  H   ASG d 306      19.635  34.966  46.060  0.00  0.00     0.132 H 
ATOM     68  H   ASG d 306      22.461  37.951  46.259  0.00  0.00     0.089 H 
ATOM     69  H   ASG d 306      20.370  39.110  44.372  0.00  0.00     0.078 H 
ATOM     70  H   ASG d 306      20.418  39.559  46.071  0.00  0.00     0.078 H 
ATOM     71  H   ASG d 306      22.089  35.591  46.999  0.00  0.00     0.040 H 
ATOM     72  H   ASG d 306      23.385  35.606  45.876  0.00  0.00     0.040 H 
ATOM     73  H   ASG d 306      21.625  33.094  46.184  0.00  0.00     0.163 HD
ATOM     74  H   ASG d 306      21.966  31.079  45.782  0.00  0.00     0.040 H 
ATOM     75  H   ASG d 306      23.019  30.729  44.432  0.00  0.00     0.040 H 
ATOM     76  H   ASG d 306      21.297  30.473  44.285  0.00  0.00     0.040 H 
ATOM     77  H   ASG d 306      21.778  35.109  43.987  0.00  0.00     0.080 H 
ATOM     78  H   ASG d 306      18.198  38.399  44.718  0.00  0.00     0.209 HD
ATOM     79  H   ASG d 306      20.164  37.272  46.739  0.00  0.00     0.090 H 
ATOM     80  C5  BDP d 305      17.344  32.976  44.101  0.00  0.00     0.152 C 
ATOM     81  O6B BDP d 305      16.710  33.195  46.351  0.00  0.00    -0.646 OA
ATOM     82  C6  BDP d 305      17.475  32.598  45.570  0.00  0.00     0.206 C 
ATOM     83  O4  BDP d 305      19.309  34.380  44.147  0.00  0.00    -0.348 OA
ATOM     84  O3  BDP d 305      18.394  35.889  41.919  0.00  0.00    -0.390 OA
ATOM     85  C2  BDP d 305      16.321  34.700  41.995  0.00  0.00     0.110 C 
ATOM     86  C1  BDP d 305      15.664  33.364  42.376  0.00  0.00     0.160 C 
ATOM     87  C4  BDP d 305      17.981  34.346  43.770  0.00  0.00     0.103 C 
ATOM     88  O6A BDP d 305      18.347  31.728  45.809  0.00  0.00    -0.646 OA
ATOM     89  C3  BDP d 305      17.811  34.631  42.266  0.00  0.00     0.092 C 
ATOM     90  O2  BDP d 305      16.057  34.956  40.614  0.00  0.00    -0.388 OA
ATOM     91  O5  BDP d 305      15.922  33.036  43.775  0.00  0.00    -0.340 OA
ATOM     92  H   BDP d 305      17.863  32.238  43.526  0.00  0.00     0.104 H 
ATOM     93  H   BDP d 305      18.276  36.049  40.969  0.00  0.00     0.210 HD
ATOM     94  H   BDP d 305      15.919  35.498  42.582  0.00  0.00     0.094 H 
ATOM     95  H   BDP d 305      16.087  32.602  41.755  0.00  0.00     0.133 H 
ATOM     96  H   BDP d 305      17.482  35.113  44.325  0.00  0.00     0.092 H 
ATOM     97  H   BDP d 305      18.291  33.866  41.693  0.00  0.00     0.091 H 
ATOM     98  H   BDP d 305      16.419  34.235  40.076  0.00  0.00     0.210 HD
ATOM     99  O6B BDP d 301       5.492  29.877  53.854  0.00  0.00    -0.646 OA
ATOM    100  C6  BDP d 301       4.798  30.896  53.643  0.00  0.00     0.206 C 
ATOM    101  O6A BDP d 301       4.157  31.230  52.622  0.00  0.00    -0.646 OA
ATOM    102  O5  BDP d 301       4.374  31.149  56.001  0.00  0.00    -0.340 OA
ATOM    103  C5  BDP d 301       4.716  31.881  54.802  0.00  0.00     0.152 C 
ATOM    104  C3  BDP d 301       5.812  33.613  56.243  0.00  0.00     0.092 C 
ATOM    105  C1  BDP d 301       4.253  32.004  57.179  0.00  0.00     0.156 C 
ATOM    106  O1  BDP d 301       3.851  31.108  58.324  0.00  0.00    -0.368 OA
ATOM    107  C4  BDP d 301       5.997  32.686  55.015  0.00  0.00     0.103 C 
ATOM    108  C2  BDP d 301       5.519  32.757  57.466  0.00  0.00     0.110 C 
ATOM    109  O2  BDP d 301       5.313  33.562  58.625  0.00  0.00    -0.388 OA
ATOM    110  O4  BDP d 301       6.099  33.478  53.887  0.00  0.00    -0.348 OA
ATOM    111  O3  BDP d 301       7.009  34.359  56.475  0.00  0.00    -0.390 OA
ATOM    112  H   BDP d 301       3.961  32.600  54.562  0.00  0.00     0.104 H 
ATOM    113  H   BDP d 301       5.004  34.289  56.058  0.00  0.00     0.091 H 
ATOM    114  H   BDP d 301       3.515  32.762  57.017  0.00  0.00     0.133 H 
ATOM    115  H   BDP d 301       4.529  30.428  58.457  0.00  0.00     0.212 HD
ATOM    116  H   BDP d 301       6.852  32.063  55.173  0.00  0.00     0.092 H 
ATOM    117  H   BDP d 301       6.346  32.107  57.655  0.00  0.00     0.094 H 
ATOM    118  H   BDP d 301       4.565  34.161  58.474  0.00  0.00     0.210 HD
ATOM    119  H   BDP d 301       7.744  33.748  56.642  0.00  0.00     0.210 HD
ATOM    120  OSC ASG d 304      11.095  34.075  39.013  0.00  0.00    -0.572 OA
ATOM    121  O3  ASG d 304      14.269  33.433  42.171  0.00  0.00    -0.348 OA
ATOM    122  C5  ASG d 304      12.018  36.310  43.101  0.00  0.00     0.090 C 
ATOM    123  C6  ASG d 304      11.206  37.349  42.367  0.00  0.00     0.043 C 
ATOM    124  O4  ASG d 304      11.844  34.694  41.296  0.00  0.00    -0.246 OA
ATOM    125  C7  ASG d 304      12.751  31.357  45.118  0.00  0.00     0.214 C 
ATOM    126  C8  ASG d 304      13.684  30.530  45.972  0.00  0.00    -0.003 C 
ATOM    127  S   ASG d 304      12.041  34.908  39.726  0.00  0.00     0.252 S 
ATOM    128  OSB ASG d 304      11.816  36.302  39.385  0.00  0.00    -0.572 OA
ATOM    129  N   ASG d 304      13.314  32.561  44.719  0.00  0.00    -0.349 N 
ATOM    130  C4  ASG d 304      12.786  35.360  42.152  0.00  0.00     0.114 C 
ATOM    131  C3  ASG d 304      13.554  34.330  43.005  0.00  0.00     0.094 C 
ATOM    132  C1  ASG d 304      11.813  34.544  44.747  0.00  0.00     0.154 C 
ATOM    133  O7  ASG d 304      11.625  30.993  44.820  0.00  0.00    -0.274 OA
ATOM    134  O6  ASG d 304      10.881  38.440  43.231  0.00  0.00    -0.398 OA
ATOM    135  O5  ASG d 304      11.112  35.545  43.951  0.00  0.00    -0.349 OA
ATOM    136  C2  ASG d 304      12.574  33.549  43.864  0.00  0.00     0.087 C 
ATOM    137  OSA ASG d 304      13.397  34.543  39.351  0.00  0.00    -0.572 OA
ATOM    138  H   ASG d 304      12.761  36.815  43.681  0.00  0.00     0.090 H 
ATOM    139  H   ASG d 304      10.302  36.902  42.012  0.00  0.00     0.078 H 
ATOM    140  H   ASG d 304      11.784  37.721  41.547  0.00  0.00     0.078 H 
ATOM    141  H   ASG d 304      14.610  31.052  46.097  0.00  0.00     0.040 H 
ATOM    142  H   ASG d 304      13.866  29.590  45.494  0.00  0.00     0.040 H 
ATOM    143  H   ASG d 304      13.237  30.362  46.930  0.00  0.00     0.040 H 
ATOM    144  H   ASG d 304      14.230  32.775  45.008  0.00  0.00     0.163 HD
ATOM    145  H   ASG d 304      13.479  35.908  41.548  0.00  0.00     0.093 H 
ATOM    146  H   ASG d 304      14.249  34.850  43.631  0.00  0.00     0.091 H 
ATOM    147  H   ASG d 304      12.530  35.043  45.366  0.00  0.00     0.132 H 
ATOM    148  H   ASG d 304      10.356  38.114  43.979  0.00  0.00     0.209 HD
ATOM    149  H   ASG d 304      11.889  33.008  43.245  0.00  0.00     0.084 H 
ENDROOT
TORSDOF 38
ENDMDL
MODEL 55
REMARK VINA RESULT:      -5.2      3.434     14.756
REMARK  0 active torsions:
REMARK  status: ('A' for Active; 'I' for Inactive)
REMARK       I    between atoms: C6_2  and  C5_74 
REMARK       I    between atoms: C1_3  and  O4_24 
REMARK       I    between atoms: O6_4  and  C6_26 
REMARK       I    between atoms: C5_5  and  C6_12 
REMARK       I    between atoms: C4_6  and  O4_22 
REMARK       I    between atoms: C6_8  and  C5_90 
REMARK       I    between atoms: C6_8  and  O6_83 
REMARK       I    between atoms: O3_11  and  C3_60 
REMARK       I    between atoms: O3_11  and  C1_29 
REMARK       I    between atoms: C5_13  and  C6_18 
REMARK       I    between atoms: O4_14  and  C4_88 
REMARK       I    between atoms: O4_14  and  S_15 
REMARK       I    between atoms: C6_16  and  C5_28 
REMARK       I    between atoms: S_17  and  O4_22 
REMARK       I    between atoms: C6_18  and  O6_66 
REMARK       I    between atoms: O4_20  and  C4_46 
REMARK       I    between atoms: O4_20  and  C1_61 
REMARK       I    between atoms: O4_21  and  C4_54 
REMARK       I    between atoms: O4_21  and  S_40 
REMARK       I    between atoms: O4_24  and  C4_35 
REMARK       I    between atoms: O3_25  and  C3_48 
REMARK       I    between atoms: C6_26  and  C5_50 
REMARK       I    between atoms: C2_27  and  O2_55 
REMARK       I    between atoms: O3_31  and  C3_37 
REMARK       I    between atoms: C2_32  and  N_72 
REMARK       I    between atoms: C7_33  and  C8_39 
REMARK       I    between atoms: C7_33  and  N_52 
REMARK       I    between atoms: C1_34  and  O4_86 
REMARK       I    between atoms: C3_36  and  O3_87 
REMARK       I    between atoms: C2_47  and  O2_85 
REMARK       I    between atoms: N_52  and  C2_71 
REMARK       I    between atoms: C3_53  and  O3_81 
REMARK       I    between atoms: C1_56  and  O3_81 
REMARK       I    between atoms: C7_57  and  C8_64 
REMARK       I    between atoms: C7_57  and  N_63 
REMARK       I    between atoms: C8_58  and  C7_73 
REMARK       I    between atoms: C1_59  and  O1_68 
REMARK       I    between atoms: N_63  and  C2_67 
REMARK       I    between atoms: C4_69  and  O4_86 
REMARK       I    between atoms: N_72  and  C7_73 
REMARK       I    between atoms: C2_77  and  O2_82 
ROOT
ATOM      1  OSB ASG d 302       8.558  31.055  47.036  0.00  0.00    -0.572 OA
ATOM      2  O6  ASG d 302       7.360  34.972  45.444  0.00  0.00    -0.398 OA
ATOM      3  O4  ASG d 302       8.378  32.637  48.946  0.00  0.00    -0.246 OA
ATOM      4  S   ASG d 302       8.939  31.231  48.424  0.00  0.00     0.252 S 
ATOM      5  C6  ASG d 302       7.839  34.021  46.390  0.00  0.00     0.043 C 
ATOM      6  C2  ASG d 302       8.068  34.921  50.576  0.00  0.00     0.087 C 
ATOM      7  C1  ASG d 302       7.199  35.721  49.616  0.00  0.00     0.154 C 
ATOM      8  O5  ASG d 302       6.975  35.013  48.375  0.00  0.00    -0.349 OA
ATOM      9  C5  ASG d 302       8.207  34.700  47.684  0.00  0.00     0.090 C 
ATOM     10  O7  ASG d 302       7.571  34.064  53.280  0.00  0.00    -0.274 OA
ATOM     11  C3  ASG d 302       9.385  34.638  49.877  0.00  0.00     0.094 C 
ATOM     12  C8  ASG d 302       8.349  36.140  54.203  0.00  0.00    -0.003 C 
ATOM     13  OSA ASG d 302      10.385  31.194  48.540  0.00  0.00    -0.572 OA
ATOM     14  N   ASG d 302       8.303  35.707  51.824  0.00  0.00    -0.349 N 
ATOM     15  C7  ASG d 302       8.025  35.180  53.082  0.00  0.00     0.214 C 
ATOM     16  OSC ASG d 302       8.364  30.168  49.217  0.00  0.00    -0.572 OA
ATOM     17  O3  ASG d 302      10.149  33.861  50.727  0.00  0.00    -0.348 OA
ATOM     18  C4  ASG d 302       9.100  33.835  48.597  0.00  0.00     0.114 C 
ATOM     19  H   ASG d 302       7.128  34.519  44.619  0.00  0.00     0.209 HD
ATOM     20  H   ASG d 302       8.703  33.533  45.991  0.00  0.00     0.078 H 
ATOM     21  H   ASG d 302       7.066  33.307  46.583  0.00  0.00     0.078 H 
ATOM     22  H   ASG d 302       7.586  34.005  50.847  0.00  0.00     0.084 H 
ATOM     23  H   ASG d 302       7.713  36.635  49.406  0.00  0.00     0.132 H 
ATOM     24  H   ASG d 302       8.776  35.576  47.453  0.00  0.00     0.090 H 
ATOM     25  H   ASG d 302       9.892  35.547  49.631  0.00  0.00     0.091 H 
ATOM     26  H   ASG d 302       8.117  35.684  55.142  0.00  0.00     0.040 H 
ATOM     27  H   ASG d 302       7.770  37.033  54.086  0.00  0.00     0.040 H 
ATOM     28  H   ASG d 302       9.390  36.384  54.173  0.00  0.00     0.040 H 
ATOM     29  H   ASG d 302       8.664  36.620  51.755  0.00  0.00     0.163 HD
ATOM     30  H   ASG d 302      10.013  33.577  48.104  0.00  0.00     0.093 H 
ATOM     31  C6  BDP d 303      14.226  35.153  48.760  0.00  0.00     0.206 C 
ATOM     32  O4  BDP d 303      15.474  34.731  51.423  0.00  0.00    -0.348 OA
ATOM     33  O3  BDP d 303      14.050  33.320  53.422  0.00  0.00    -0.390 OA
ATOM     34  C3  BDP d 303      13.405  34.144  52.438  0.00  0.00     0.092 C 
ATOM     35  O6B BDP d 303      14.612  34.072  48.272  0.00  0.00    -0.646 OA
ATOM     36  C4  BDP d 303      14.234  34.175  51.146  0.00  0.00     0.103 C 
ATOM     37  C2  BDP d 303      12.047  33.552  52.112  0.00  0.00     0.110 C 
ATOM     38  O6A BDP d 303      14.344  36.318  48.316  0.00  0.00    -0.646 OA
ATOM     39  C1  BDP d 303      11.374  34.414  51.056  0.00  0.00     0.160 C 
ATOM     40  C5  BDP d 303      13.500  35.057  50.101  0.00  0.00     0.152 C 
ATOM     41  O5  BDP d 303      12.180  34.501  49.850  0.00  0.00    -0.340 OA
ATOM     42  O2  BDP d 303      11.222  33.525  53.281  0.00  0.00    -0.388 OA
ATOM     43  H   BDP d 303      13.518  33.308  54.233  0.00  0.00     0.210 HD
ATOM     44  H   BDP d 303      13.306  35.135  52.828  0.00  0.00     0.091 H 
ATOM     45  H   BDP d 303      14.358  33.184  50.762  0.00  0.00     0.092 H 
ATOM     46  H   BDP d 303      12.179  32.553  51.754  0.00  0.00     0.094 H 
ATOM     47  H   BDP d 303      11.253  35.397  51.460  0.00  0.00     0.133 H 
ATOM     48  H   BDP d 303      13.456  36.042  50.517  0.00  0.00     0.104 H 
ATOM     49  H   BDP d 303      11.098  34.428  53.611  0.00  0.00     0.210 HD
ATOM     50  C1  ASG d 306      21.358  34.233  44.367  0.00  0.00     0.151 C 
ATOM     51  C4  ASG d 306      22.030  32.441  42.146  0.00  0.00     0.089 C 
ATOM     52  C6  ASG d 306      20.914  30.636  43.547  0.00  0.00     0.043 C 
ATOM     53  S   ASG d 306      24.200  31.131  41.682  0.00  0.00     0.252 S 
ATOM     54  O4  ASG d 306      23.314  32.045  42.631  0.00  0.00    -0.249 OA
ATOM     55  OSB ASG d 306      25.467  30.861  42.337  0.00  0.00    -0.572 OA
ATOM     56  OSA ASG d 306      23.505  29.880  41.439  0.00  0.00    -0.572 OA
ATOM     57  C3  ASG d 306      22.062  33.988  41.876  0.00  0.00    -0.014 C 
ATOM     58  C7  ASG d 306      23.373  36.904  43.844  0.00  0.00     0.214 C 
ATOM     59  N   ASG d 306      22.360  36.149  43.249  0.00  0.00    -0.352 N 
ATOM     60  C8  ASG d 306      23.179  38.388  43.655  0.00  0.00    -0.003 C 
ATOM     61  C2  ASG d 306      22.355  34.654  43.331  0.00  0.00     0.062 C 
ATOM     62  O5  ASG d 306      21.319  32.792  44.491  0.00  0.00    -0.349 OA
ATOM     63  O6  ASG d 306      20.018  30.377  44.627  0.00  0.00    -0.398 OA
ATOM     64  O7  ASG d 306      24.322  36.432  44.464  0.00  0.00    -0.274 OA
ATOM     65  OSC ASG d 306      24.431  31.811  40.427  0.00  0.00    -0.572 OA
ATOM     66  C5  ASG d 306      20.973  32.116  43.242  0.00  0.00     0.088 C 
ATOM     67  H   ASG d 306      20.382  34.561  44.077  0.00  0.00     0.132 H 
ATOM     68  H   ASG d 306      21.780  31.924  41.243  0.00  0.00     0.089 H 
ATOM     69  H   ASG d 306      21.893  30.293  43.813  0.00  0.00     0.078 H 
ATOM     70  H   ASG d 306      20.562  30.120  42.678  0.00  0.00     0.078 H 
ATOM     71  H   ASG d 306      21.122  34.324  41.490  0.00  0.00     0.040 H 
ATOM     72  H   ASG d 306      22.801  34.257  41.151  0.00  0.00     0.040 H 
ATOM     73  H   ASG d 306      21.634  36.608  42.767  0.00  0.00     0.163 HD
ATOM     74  H   ASG d 306      22.289  38.561  43.086  0.00  0.00     0.040 H 
ATOM     75  H   ASG d 306      24.020  38.794  43.134  0.00  0.00     0.040 H 
ATOM     76  H   ASG d 306      23.089  38.860  44.611  0.00  0.00     0.040 H 
ATOM     77  H   ASG d 306      23.321  34.301  43.626  0.00  0.00     0.080 H 
ATOM     78  H   ASG d 306      20.327  30.840  45.422  0.00  0.00     0.209 HD
ATOM     79  H   ASG d 306      20.029  32.449  42.863  0.00  0.00     0.090 H 
ATOM     80  C5  BDP d 305      20.631  35.995  47.382  0.00  0.00     0.152 C 
ATOM     81  O6B BDP d 305      18.461  36.070  46.487  0.00  0.00    -0.646 OA
ATOM     82  C6  BDP d 305      19.584  36.608  46.461  0.00  0.00     0.206 C 
ATOM     83  O4  BDP d 305      21.718  34.809  45.582  0.00  0.00    -0.348 OA
ATOM     84  O3  BDP d 305      22.803  32.892  47.379  0.00  0.00    -0.390 OA
ATOM     85  C2  BDP d 305      21.539  33.877  49.154  0.00  0.00     0.110 C 
ATOM     86  C1  BDP d 305      20.921  35.187  49.665  0.00  0.00     0.160 C 
ATOM     87  C4  BDP d 305      21.195  34.658  46.851  0.00  0.00     0.103 C 
ATOM     88  O6A BDP d 305      19.991  37.583  45.784  0.00  0.00    -0.646 OA
ATOM     89  C3  BDP d 305      22.252  34.128  47.839  0.00  0.00     0.092 C 
ATOM     90  O2  BDP d 305      22.443  33.385  50.147  0.00  0.00    -0.388 OA
ATOM     91  O5  BDP d 305      20.004  35.752  48.679  0.00  0.00    -0.340 OA
ATOM     92  H   BDP d 305      21.449  36.681  47.448  0.00  0.00     0.104 H 
ATOM     93  H   BDP d 305      23.464  32.577  48.015  0.00  0.00     0.210 HD
ATOM     94  H   BDP d 305      20.779  33.145  48.979  0.00  0.00     0.094 H 
ATOM     95  H   BDP d 305      21.717  35.880  49.838  0.00  0.00     0.133 H 
ATOM     96  H   BDP d 305      20.403  33.943  46.776  0.00  0.00     0.092 H 
ATOM     97  H   BDP d 305      23.047  34.837  47.939  0.00  0.00     0.091 H 
ATOM     98  H   BDP d 305      23.134  34.046  50.310  0.00  0.00     0.210 HD
ATOM     99  O6B BDP d 301       5.865  39.434  51.299  0.00  0.00    -0.646 OA
ATOM    100  C6  BDP d 301       5.537  38.333  51.795  0.00  0.00     0.206 C 
ATOM    101  O6A BDP d 301       5.919  37.785  52.852  0.00  0.00    -0.646 OA
ATOM    102  O5  BDP d 301       3.410  38.410  50.666  0.00  0.00    -0.340 OA
ATOM    103  C5  BDP d 301       4.514  37.537  50.995  0.00  0.00     0.152 C 
ATOM    104  C3  BDP d 301       3.951  36.161  48.978  0.00  0.00     0.092 C 
ATOM    105  C1  BDP d 301       2.357  37.740  49.907  0.00  0.00     0.156 C 
ATOM    106  O1  BDP d 301       1.268  38.761  49.684  0.00  0.00    -0.368 OA
ATOM    107  C4  BDP d 301       5.087  36.899  49.729  0.00  0.00     0.103 C 
ATOM    108  C2  BDP d 301       2.865  37.164  48.617  0.00  0.00     0.110 C 
ATOM    109  O2  BDP d 301       1.778  36.534  47.945  0.00  0.00    -0.388 OA
ATOM    110  O4  BDP d 301       5.982  35.955  50.193  0.00  0.00    -0.348 OA
ATOM    111  O3  BDP d 301       4.460  35.576  47.777  0.00  0.00    -0.390 OA
ATOM    112  H   BDP d 301       4.190  36.720  51.606  0.00  0.00     0.104 H 
ATOM    113  H   BDP d 301       3.553  35.391  49.605  0.00  0.00     0.091 H 
ATOM    114  H   BDP d 301       1.979  36.900  50.451  0.00  0.00     0.133 H 
ATOM    115  H   BDP d 301       1.627  39.515  49.190  0.00  0.00     0.212 HD
ATOM    116  H   BDP d 301       5.531  37.618  49.073  0.00  0.00     0.092 H 
ATOM    117  H   BDP d 301       3.270  37.912  47.968  0.00  0.00     0.094 H 
ATOM    118  H   BDP d 301       1.396  35.850  48.517  0.00  0.00     0.210 HD
ATOM    119  H   BDP d 301       4.822  36.273  47.207  0.00  0.00     0.210 HD
ATOM    120  OSC ASG d 304      20.689  33.533  55.133  0.00  0.00    -0.572 OA
ATOM    121  O3  ASG d 304      20.215  34.956  50.866  0.00  0.00    -0.348 OA
ATOM    122  C5  ASG d 304      17.911  32.057  51.574  0.00  0.00     0.090 C 
ATOM    123  C6  ASG d 304      17.919  30.845  52.473  0.00  0.00     0.043 C 
ATOM    124  O4  ASG d 304      19.323  33.349  53.070  0.00  0.00    -0.246 OA
ATOM    125  C7  ASG d 304      17.101  37.310  50.633  0.00  0.00     0.214 C 
ATOM    126  C8  ASG d 304      17.061  38.344  49.531  0.00  0.00    -0.003 C 
ATOM    127  S   ASG d 304      20.661  32.914  53.824  0.00  0.00     0.252 S 
ATOM    128  OSB ASG d 304      20.700  31.469  53.968  0.00  0.00    -0.572 OA
ATOM    129  N   ASG d 304      17.684  36.117  50.228  0.00  0.00    -0.349 N 
ATOM    130  C4  ASG d 304      19.190  32.917  51.707  0.00  0.00     0.114 C 
ATOM    131  C3  ASG d 304      19.062  34.135  50.770  0.00  0.00     0.094 C 
ATOM    132  C1  ASG d 304      16.608  34.030  51.046  0.00  0.00     0.154 C 
ATOM    133  O7  ASG d 304      16.662  37.515  51.753  0.00  0.00    -0.274 OA
ATOM    134  O6  ASG d 304      16.971  29.876  52.022  0.00  0.00    -0.398 OA
ATOM    135  O5  ASG d 304      16.735  32.856  51.901  0.00  0.00    -0.349 OA
ATOM    136  C2  ASG d 304      17.833  34.944  51.151  0.00  0.00     0.087 C 
ATOM    137  OSA ASG d 304      21.816  33.344  53.053  0.00  0.00    -0.572 OA
ATOM    138  H   ASG d 304      17.883  31.721  50.559  0.00  0.00     0.090 H 
ATOM    139  H   ASG d 304      17.668  31.144  53.468  0.00  0.00     0.078 H 
ATOM    140  H   ASG d 304      18.894  30.407  52.452  0.00  0.00     0.078 H 
ATOM    141  H   ASG d 304      17.502  37.939  48.644  0.00  0.00     0.040 H 
ATOM    142  H   ASG d 304      17.608  39.211  49.836  0.00  0.00     0.040 H 
ATOM    143  H   ASG d 304      16.045  38.615  49.333  0.00  0.00     0.040 H 
ATOM    144  H   ASG d 304      18.010  36.039  49.302  0.00  0.00     0.163 HD
ATOM    145  H   ASG d 304      20.056  32.350  51.436  0.00  0.00     0.093 H 
ATOM    146  H   ASG d 304      18.968  33.787  49.762  0.00  0.00     0.091 H 
ATOM    147  H   ASG d 304      16.534  33.704  50.029  0.00  0.00     0.132 H 
ATOM    148  H   ASG d 304      16.081  30.262  52.037  0.00  0.00     0.209 HD
ATOM    149  H   ASG d 304      17.931  35.314  52.151  0.00  0.00     0.084 H 
ENDROOT
TORSDOF 38
ENDMDL
MODEL 56
REMARK VINA RESULT:      -5.2      3.354     14.936
REMARK  0 active torsions:
REMARK  status: ('A' for Active; 'I' for Inactive)
REMARK       I    between atoms: C6_2  and  C5_74 
REMARK       I    between atoms: C1_3  and  O4_24 
REMARK       I    between atoms: O6_4  and  C6_26 
REMARK       I    between atoms: C5_5  and  C6_12 
REMARK       I    between atoms: C4_6  and  O4_22 
REMARK       I    between atoms: C6_8  and  C5_90 
REMARK       I    between atoms: C6_8  and  O6_83 
REMARK       I    between atoms: O3_11  and  C3_60 
REMARK       I    between atoms: O3_11  and  C1_29 
REMARK       I    between atoms: C5_13  and  C6_18 
REMARK       I    between atoms: O4_14  and  C4_88 
REMARK       I    between atoms: O4_14  and  S_15 
REMARK       I    between atoms: C6_16  and  C5_28 
REMARK       I    between atoms: S_17  and  O4_22 
REMARK       I    between atoms: C6_18  and  O6_66 
REMARK       I    between atoms: O4_20  and  C4_46 
REMARK       I    between atoms: O4_20  and  C1_61 
REMARK       I    between atoms: O4_21  and  C4_54 
REMARK       I    between atoms: O4_21  and  S_40 
REMARK       I    between atoms: O4_24  and  C4_35 
REMARK       I    between atoms: O3_25  and  C3_48 
REMARK       I    between atoms: C6_26  and  C5_50 
REMARK       I    between atoms: C2_27  and  O2_55 
REMARK       I    between atoms: O3_31  and  C3_37 
REMARK       I    between atoms: C2_32  and  N_72 
REMARK       I    between atoms: C7_33  and  C8_39 
REMARK       I    between atoms: C7_33  and  N_52 
REMARK       I    between atoms: C1_34  and  O4_86 
REMARK       I    between atoms: C3_36  and  O3_87 
REMARK       I    between atoms: C2_47  and  O2_85 
REMARK       I    between atoms: N_52  and  C2_71 
REMARK       I    between atoms: C3_53  and  O3_81 
REMARK       I    between atoms: C1_56  and  O3_81 
REMARK       I    between atoms: C7_57  and  C8_64 
REMARK       I    between atoms: C7_57  and  N_63 
REMARK       I    between atoms: C8_58  and  C7_73 
REMARK       I    between atoms: C1_59  and  O1_68 
REMARK       I    between atoms: N_63  and  C2_67 
REMARK       I    between atoms: C4_69  and  O4_86 
REMARK       I    between atoms: N_72  and  C7_73 
REMARK       I    between atoms: C2_77  and  O2_82 
ROOT
ATOM      1  OSB ASG d 302       7.003  33.964  48.485  0.00  0.00    -0.572 OA
ATOM      2  O6  ASG d 302       6.310  38.281  48.923  0.00  0.00    -0.398 OA
ATOM      3  O4  ASG d 302       7.355  34.559  50.874  0.00  0.00    -0.246 OA
ATOM      4  S   ASG d 302       7.588  33.475  49.718  0.00  0.00     0.252 S 
ATOM      5  C6  ASG d 302       6.736  36.969  49.278  0.00  0.00     0.043 C 
ATOM      6  C2  ASG d 302       7.667  35.917  53.329  0.00  0.00     0.087 C 
ATOM      7  C1  ASG d 302       6.833  37.139  52.975  0.00  0.00     0.154 C 
ATOM      8  O5  ASG d 302       6.327  37.073  51.622  0.00  0.00    -0.349 OA
ATOM      9  C5  ASG d 302       7.384  36.971  50.639  0.00  0.00     0.090 C 
ATOM     10  O7  ASG d 302       7.387  34.018  55.476  0.00  0.00    -0.274 OA
ATOM     11  C3  ASG d 302       8.811  35.836  52.335  0.00  0.00     0.094 C 
ATOM     12  C8  ASG d 302       8.632  35.389  57.004  0.00  0.00    -0.003 C 
ATOM     13  OSA ASG d 302       9.008  33.244  49.526  0.00  0.00    -0.572 OA
ATOM     14  N   ASG d 302       8.198  36.049  54.718  0.00  0.00    -0.349 N 
ATOM     15  C7  ASG d 302       8.000  35.055  55.673  0.00  0.00     0.214 C 
ATOM     16  OSC ASG d 302       6.946  32.236  50.095  0.00  0.00    -0.572 OA
ATOM     17  O3  ASG d 302       9.532  34.693  52.621  0.00  0.00    -0.348 OA
ATOM     18  C4  ASG d 302       8.223  35.708  50.919  0.00  0.00     0.114 C 
ATOM     19  H   ASG d 302       5.897  38.261  48.046  0.00  0.00     0.209 HD
ATOM     20  H   ASG d 302       7.442  36.620  48.554  0.00  0.00     0.078 H 
ATOM     21  H   ASG d 302       5.882  36.324  49.303  0.00  0.00     0.078 H 
ATOM     22  H   ASG d 302       7.072  35.028  53.285  0.00  0.00     0.084 H 
ATOM     23  H   ASG d 302       7.467  37.996  53.067  0.00  0.00     0.132 H 
ATOM     24  H   ASG d 302       8.062  37.797  50.685  0.00  0.00     0.090 H 
ATOM     25  H   ASG d 302       9.432  36.705  52.394  0.00  0.00     0.091 H 
ATOM     26  H   ASG d 302       8.448  34.594  57.696  0.00  0.00     0.040 H 
ATOM     27  H   ASG d 302       8.207  36.296  57.383  0.00  0.00     0.040 H 
ATOM     28  H   ASG d 302       9.686  35.515  56.878  0.00  0.00     0.040 H 
ATOM     29  H   ASG d 302       8.701  36.858  54.965  0.00  0.00     0.163 HD
ATOM     30  H   ASG d 302       9.005  35.601  50.196  0.00  0.00     0.093 H 
ATOM     31  C6  BDP d 303      13.477  36.296  50.615  0.00  0.00     0.206 C 
ATOM     32  O4  BDP d 303      14.972  34.627  52.567  0.00  0.00    -0.348 OA
ATOM     33  O3  BDP d 303      13.598  32.635  54.037  0.00  0.00    -0.390 OA
ATOM     34  C3  BDP d 303      12.983  33.867  53.628  0.00  0.00     0.092 C 
ATOM     35  O6B BDP d 303      13.602  35.505  49.659  0.00  0.00    -0.646 OA
ATOM     36  C4  BDP d 303      13.628  34.377  52.331  0.00  0.00     0.103 C 
ATOM     37  C2  BDP d 303      11.512  33.618  53.357  0.00  0.00     0.110 C 
ATOM     38  O6A BDP d 303      13.739  37.519  50.680  0.00  0.00    -0.646 OA
ATOM     39  C1  BDP d 303      10.868  34.918  52.904  0.00  0.00     0.160 C 
ATOM     40  C5  BDP d 303      12.929  35.697  51.909  0.00  0.00     0.152 C 
ATOM     41  O5  BDP d 303      11.510  35.443  51.712  0.00  0.00    -0.340 OA
ATOM     42  O2  BDP d 303      10.856  33.166  54.545  0.00  0.00    -0.388 OA
ATOM     43  H   BDP d 303      13.183  32.323  54.856  0.00  0.00     0.210 HD
ATOM     44  H   BDP d 303      13.111  34.592  54.404  0.00  0.00     0.091 H 
ATOM     45  H   BDP d 303      13.525  33.647  51.555  0.00  0.00     0.092 H 
ATOM     46  H   BDP d 303      11.419  32.869  52.598  0.00  0.00     0.094 H 
ATOM     47  H   BDP d 303      10.974  35.632  53.694  0.00  0.00     0.133 H 
ATOM     48  H   BDP d 303      13.113  36.398  52.695  0.00  0.00     0.104 H 
ATOM     49  H   BDP d 303      10.936  33.841  55.236  0.00  0.00     0.210 HD
ATOM     50  C1  ASG d 306      19.699  36.675  44.944  0.00  0.00     0.151 C 
ATOM     51  C4  ASG d 306      19.749  35.979  42.096  0.00  0.00     0.089 C 
ATOM     52  C6  ASG d 306      18.529  33.866  42.812  0.00  0.00     0.043 C 
ATOM     53  S   ASG d 306      21.576  34.793  40.721  0.00  0.00     0.252 S 
ATOM     54  O4  ASG d 306      20.996  35.283  42.114  0.00  0.00    -0.249 OA
ATOM     55  OSB ASG d 306      22.851  34.136  40.946  0.00  0.00    -0.572 OA
ATOM     56  OSA ASG d 306      20.647  33.851  40.121  0.00  0.00    -0.572 OA
ATOM     57  C3  ASG d 306      20.015  37.476  42.490  0.00  0.00    -0.014 C 
ATOM     58  C7  ASG d 306      22.064  39.087  45.193  0.00  0.00     0.214 C 
ATOM     59  N   ASG d 306      20.864  38.775  44.548  0.00  0.00    -0.352 N 
ATOM     60  C8  ASG d 306      22.108  40.514  45.677  0.00  0.00    -0.003 C 
ATOM     61  C2  ASG d 306      20.609  37.405  44.003  0.00  0.00     0.062 C 
ATOM     62  O5  ASG d 306      19.424  35.338  44.465  0.00  0.00    -0.349 OA
ATOM     63  O6  ASG d 306      17.751  33.252  43.838  0.00  0.00    -0.398 OA
ATOM     64  O7  ASG d 306      22.988  38.297  45.365  0.00  0.00    -0.274 OA
ATOM     65  OSC ASG d 306      21.756  35.926  39.840  0.00  0.00    -0.572 OA
ATOM     66  C5  ASG d 306      18.805  35.316  43.142  0.00  0.00     0.088 C 
ATOM     67  H   ASG d 306      18.766  37.194  45.010  0.00  0.00     0.132 H 
ATOM     68  H   ASG d 306      19.296  35.938  41.127  0.00  0.00     0.089 H 
ATOM     69  H   ASG d 306      19.458  33.344  42.716  0.00  0.00     0.078 H 
ATOM     70  H   ASG d 306      17.981  33.821  41.893  0.00  0.00     0.078 H 
ATOM     71  H   ASG d 306      19.106  38.040  42.468  0.00  0.00     0.040 H 
ATOM     72  H   ASG d 306      20.688  37.959  41.813  0.00  0.00     0.040 H 
ATOM     73  H   ASG d 306      20.173  39.470  44.450  0.00  0.00     0.163 HD
ATOM     74  H   ASG d 306      21.196  41.008  45.415  0.00  0.00     0.040 H 
ATOM     75  H   ASG d 306      22.932  41.021  45.219  0.00  0.00     0.040 H 
ATOM     76  H   ASG d 306      22.229  40.527  46.740  0.00  0.00     0.040 H 
ATOM     77  H   ASG d 306      21.529  36.862  43.932  0.00  0.00     0.080 H 
ATOM     78  H   ASG d 306      18.237  33.287  44.677  0.00  0.00     0.209 HD
ATOM     79  H   ASG d 306      17.892  35.874  43.125  0.00  0.00     0.090 H 
ATOM     80  C5  BDP d 305      19.693  37.003  48.496  0.00  0.00     0.152 C 
ATOM     81  O6B BDP d 305      17.472  37.681  48.152  0.00  0.00    -0.646 OA
ATOM     82  C6  BDP d 305      18.658  38.060  48.133  0.00  0.00     0.206 C 
ATOM     83  O4  BDP d 305      20.310  36.622  46.193  0.00  0.00    -0.348 OA
ATOM     84  O3  BDP d 305      21.270  34.013  46.787  0.00  0.00    -0.390 OA
ATOM     85  C2  BDP d 305      20.442  34.243  49.018  0.00  0.00     0.110 C 
ATOM     86  C1  BDP d 305      20.135  35.252  50.135  0.00  0.00     0.160 C 
ATOM     87  C4  BDP d 305      19.941  35.984  47.360  0.00  0.00     0.103 C 
ATOM     88  O6A BDP d 305      19.137  39.186  47.856  0.00  0.00    -0.646 OA
ATOM     89  C3  BDP d 305      21.009  34.971  47.815  0.00  0.00     0.092 C 
ATOM     90  O2  BDP d 305      21.368  33.278  49.523  0.00  0.00    -0.388 OA
ATOM     91  O5  BDP d 305      19.210  36.281  49.669  0.00  0.00    -0.340 OA
ATOM     92  H   BDP d 305      20.621  37.505  48.680  0.00  0.00     0.104 H 
ATOM     93  H   BDP d 305      21.943  33.386  47.094  0.00  0.00     0.210 HD
ATOM     94  H   BDP d 305      19.550  33.742  48.707  0.00  0.00     0.094 H 
ATOM     95  H   BDP d 305      21.056  35.715  50.421  0.00  0.00     0.133 H 
ATOM     96  H   BDP d 305      19.033  35.458  47.152  0.00  0.00     0.092 H 
ATOM     97  H   BDP d 305      21.921  35.480  48.043  0.00  0.00     0.091 H 
ATOM     98  H   BDP d 305      22.180  33.726  49.807  0.00  0.00     0.210 HD
ATOM     99  O6B BDP d 301       6.402  39.854  56.268  0.00  0.00    -0.646 OA
ATOM    100  C6  BDP d 301       5.954  38.687  56.317  0.00  0.00     0.206 C 
ATOM    101  O6A BDP d 301       6.371  37.696  56.956  0.00  0.00    -0.646 OA
ATOM    102  O5  BDP d 301       3.744  39.465  55.756  0.00  0.00    -0.340 OA
ATOM    103  C5  BDP d 301       4.712  38.429  55.474  0.00  0.00     0.152 C 
ATOM    104  C3  BDP d 301       3.656  38.140  53.219  0.00  0.00     0.092 C 
ATOM    105  C1  BDP d 301       2.500  39.306  55.009  0.00  0.00     0.156 C 
ATOM    106  O1  BDP d 301       1.586  40.426  55.444  0.00  0.00    -0.368 OA
ATOM    107  C4  BDP d 301       4.993  38.356  53.973  0.00  0.00     0.103 C 
ATOM    108  C2  BDP d 301       2.726  39.305  53.525  0.00  0.00     0.110 C 
ATOM    109  O2  BDP d 301       1.466  39.146  52.876  0.00  0.00    -0.388 OA
ATOM    110  O4  BDP d 301       5.762  37.219  53.821  0.00  0.00    -0.348 OA
ATOM    111  O3  BDP d 301       3.893  38.093  51.811  0.00  0.00    -0.390 OA
ATOM    112  H   BDP d 301       4.333  37.465  55.742  0.00  0.00     0.104 H 
ATOM    113  H   BDP d 301       3.216  37.218  53.536  0.00  0.00     0.091 H 
ATOM    114  H   BDP d 301       2.056  38.356  55.218  0.00  0.00     0.133 H 
ATOM    115  H   BDP d 301       2.003  41.279  55.248  0.00  0.00     0.212 HD
ATOM    116  H   BDP d 301       5.466  39.240  53.601  0.00  0.00     0.092 H 
ATOM    117  H   BDP d 301       3.165  40.216  53.178  0.00  0.00     0.094 H 
ATOM    118  H   BDP d 301       1.049  38.323  53.177  0.00  0.00     0.210 HD
ATOM    119  H   BDP d 301       4.293  38.928  51.522  0.00  0.00     0.210 HD
ATOM    120  OSC ASG d 304      20.338  31.404  54.359  0.00  0.00    -0.572 OA
ATOM    121  O3  ASG d 304      19.564  34.591  51.244  0.00  0.00    -0.348 OA
ATOM    122  C5  ASG d 304      16.902  31.925  51.122  0.00  0.00     0.090 C 
ATOM    123  C6  ASG d 304      16.815  30.448  51.417  0.00  0.00     0.043 C 
ATOM    124  O4  ASG d 304      18.702  32.281  52.713  0.00  0.00    -0.246 OA
ATOM    125  C7  ASG d 304      16.907  37.112  52.616  0.00  0.00     0.214 C 
ATOM    126  C8  ASG d 304      16.904  38.522  52.072  0.00  0.00    -0.003 C 
ATOM    127  S   ASG d 304      20.030  31.427  52.944  0.00  0.00     0.252 S 
ATOM    128  OSB ASG d 304      19.835  30.070  52.466  0.00  0.00    -0.572 OA
ATOM    129  N   ASG d 304      17.213  36.165  51.649  0.00  0.00    -0.349 N 
ATOM    130  C4  ASG d 304      18.318  32.505  51.348  0.00  0.00     0.114 C 
ATOM    131  C3  ASG d 304      18.283  34.017  51.043  0.00  0.00     0.094 C 
ATOM    132  C1  ASG d 304      15.906  34.050  51.721  0.00  0.00     0.154 C 
ATOM    133  O7  ASG d 304      16.661  36.849  53.782  0.00  0.00    -0.274 OA
ATOM    134  O6  ASG d 304      15.661  29.875  50.799  0.00  0.00    -0.398 OA
ATOM    135  O5  ASG d 304      15.936  32.614  51.971  0.00  0.00    -0.349 OA
ATOM    136  C2  ASG d 304      17.275  34.697  51.956  0.00  0.00     0.087 C 
ATOM    137  OSA ASG d 304      21.132  32.031  52.212  0.00  0.00    -0.572 OA
ATOM    138  H   ASG d 304      16.682  32.072  50.085  0.00  0.00     0.090 H 
ATOM    139  H   ASG d 304      16.753  30.304  52.475  0.00  0.00     0.078 H 
ATOM    140  H   ASG d 304      17.688  29.967  51.028  0.00  0.00     0.078 H 
ATOM    141  H   ASG d 304      17.146  38.504  51.030  0.00  0.00     0.040 H 
ATOM    142  H   ASG d 304      17.629  39.108  52.596  0.00  0.00     0.040 H 
ATOM    143  H   ASG d 304      15.934  38.954  52.205  0.00  0.00     0.040 H 
ATOM    144  H   ASG d 304      17.396  36.467  50.730  0.00  0.00     0.163 HD
ATOM    145  H   ASG d 304      19.028  32.030  50.704  0.00  0.00     0.093 H 
ATOM    146  H   ASG d 304      17.997  34.156  50.021  0.00  0.00     0.091 H 
ATOM    147  H   ASG d 304      15.643  34.212  50.696  0.00  0.00     0.132 H 
ATOM    148  H   ASG d 304      14.862  30.304  51.146  0.00  0.00     0.209 HD
ATOM    149  H   ASG d 304      17.566  34.580  52.979  0.00  0.00     0.084 H 
ENDROOT
TORSDOF 38
ENDMDL
MODEL 57
REMARK VINA RESULT:      -5.1      4.441     16.400
REMARK  0 active torsions:
REMARK  status: ('A' for Active; 'I' for Inactive)
REMARK       I    between atoms: C6_2  and  C5_74 
REMARK       I    between atoms: C1_3  and  O4_24 
REMARK       I    between atoms: O6_4  and  C6_26 
REMARK       I    between atoms: C5_5  and  C6_12 
REMARK       I    between atoms: C4_6  and  O4_22 
REMARK       I    between atoms: C6_8  and  C5_90 
REMARK       I    between atoms: C6_8  and  O6_83 
REMARK       I    between atoms: O3_11  and  C3_60 
REMARK       I    between atoms: O3_11  and  C1_29 
REMARK       I    between atoms: C5_13  and  C6_18 
REMARK       I    between atoms: O4_14  and  C4_88 
REMARK       I    between atoms: O4_14  and  S_15 
REMARK       I    between atoms: C6_16  and  C5_28 
REMARK       I    between atoms: S_17  and  O4_22 
REMARK       I    between atoms: C6_18  and  O6_66 
REMARK       I    between atoms: O4_20  and  C4_46 
REMARK       I    between atoms: O4_20  and  C1_61 
REMARK       I    between atoms: O4_21  and  C4_54 
REMARK       I    between atoms: O4_21  and  S_40 
REMARK       I    between atoms: O4_24  and  C4_35 
REMARK       I    between atoms: O3_25  and  C3_48 
REMARK       I    between atoms: C6_26  and  C5_50 
REMARK       I    between atoms: C2_27  and  O2_55 
REMARK       I    between atoms: O3_31  and  C3_37 
REMARK       I    between atoms: C2_32  and  N_72 
REMARK       I    between atoms: C7_33  and  C8_39 
REMARK       I    between atoms: C7_33  and  N_52 
REMARK       I    between atoms: C1_34  and  O4_86 
REMARK       I    between atoms: C3_36  and  O3_87 
REMARK       I    between atoms: C2_47  and  O2_85 
REMARK       I    between atoms: N_52  and  C2_71 
REMARK       I    between atoms: C3_53  and  O3_81 
REMARK       I    between atoms: C1_56  and  O3_81 
REMARK       I    between atoms: C7_57  and  C8_64 
REMARK       I    between atoms: C7_57  and  N_63 
REMARK       I    between atoms: C8_58  and  C7_73 
REMARK       I    between atoms: C1_59  and  O1_68 
REMARK       I    between atoms: N_63  and  C2_67 
REMARK       I    between atoms: C4_69  and  O4_86 
REMARK       I    between atoms: N_72  and  C7_73 
REMARK       I    between atoms: C2_77  and  O2_82 
ROOT
ATOM      1  OSB ASG d 302       4.317  40.222  50.920  0.00  0.00    -0.572 OA
ATOM      2  O6  ASG d 302       5.059  38.752  54.995  0.00  0.00    -0.398 OA
ATOM      3  O4  ASG d 302       3.385  37.923  51.087  0.00  0.00    -0.246 OA
ATOM      4  S   ASG d 302       3.853  39.107  50.117  0.00  0.00     0.252 S 
ATOM      5  C6  ASG d 302       4.705  38.700  53.616  0.00  0.00     0.043 C 
ATOM      6  C2  ASG d 302       2.650  35.332  51.936  0.00  0.00     0.087 C 
ATOM      7  C1  ASG d 302       2.673  35.611  53.432  0.00  0.00     0.154 C 
ATOM      8  O5  ASG d 302       3.071  36.971  53.721  0.00  0.00    -0.349 OA
ATOM      9  C5  ASG d 302       4.384  37.287  53.203  0.00  0.00     0.090 C 
ATOM     10  O7  ASG d 302       0.528  34.373  50.243  0.00  0.00    -0.274 OA
ATOM     11  C3  ASG d 302       4.042  35.608  51.396  0.00  0.00     0.094 C 
ATOM     12  C8  ASG d 302       1.023  32.075  50.729  0.00  0.00    -0.003 C 
ATOM     13  OSA ASG d 302       4.926  38.652  49.251  0.00  0.00    -0.572 OA
ATOM     14  N   ASG d 302       2.273  33.909  51.690  0.00  0.00    -0.349 N 
ATOM     15  C7  ASG d 302       1.223  33.568  50.842  0.00  0.00     0.214 C 
ATOM     16  OSC ASG d 302       2.731  39.531  49.311  0.00  0.00    -0.572 OA
ATOM     17  O3  ASG d 302       4.004  35.412  50.028  0.00  0.00    -0.348 OA
ATOM     18  C4  ASG d 302       4.395  37.078  51.674  0.00  0.00     0.114 C 
ATOM     19  H   ASG d 302       5.261  39.667  55.242  0.00  0.00     0.209 HD
ATOM     20  H   ASG d 302       5.524  39.061  53.029  0.00  0.00     0.078 H 
ATOM     21  H   ASG d 302       3.840  39.310  53.458  0.00  0.00     0.078 H 
ATOM     22  H   ASG d 302       1.931  35.955  51.447  0.00  0.00     0.084 H 
ATOM     23  H   ASG d 302       3.382  34.942  53.872  0.00  0.00     0.132 H 
ATOM     24  H   ASG d 302       5.142  36.643  53.597  0.00  0.00     0.090 H 
ATOM     25  H   ASG d 302       4.765  34.966  51.854  0.00  0.00     0.091 H 
ATOM     26  H   ASG d 302       0.207  31.873  50.068  0.00  0.00     0.040 H 
ATOM     27  H   ASG d 302       0.807  31.669  51.696  0.00  0.00     0.040 H 
ATOM     28  H   ASG d 302       1.914  31.623  50.345  0.00  0.00     0.040 H 
ATOM     29  H   ASG d 302       2.779  33.193  52.139  0.00  0.00     0.163 HD
ATOM     30  H   ASG d 302       5.353  37.319  51.263  0.00  0.00     0.093 H 
ATOM     31  C6  BDP d 303       8.625  34.579  49.699  0.00  0.00     0.206 C 
ATOM     32  O4  BDP d 303       7.996  32.841  47.373  0.00  0.00    -0.348 OA
ATOM     33  O3  BDP d 303       5.436  32.990  46.174  0.00  0.00    -0.390 OA
ATOM     34  C3  BDP d 303       5.655  33.204  47.578  0.00  0.00     0.092 C 
ATOM     35  O6B BDP d 303       9.000  35.558  49.022  0.00  0.00    -0.646 OA
ATOM     36  C4  BDP d 303       7.063  33.767  47.816  0.00  0.00     0.103 C 
ATOM     37  C2  BDP d 303       4.649  34.219  48.085  0.00  0.00     0.110 C 
ATOM     38  O6A BDP d 303       9.206  33.989  50.640  0.00  0.00    -0.646 OA
ATOM     39  C1  BDP d 303       4.895  34.460  49.565  0.00  0.00     0.160 C 
ATOM     40  C5  BDP d 303       7.259  34.002  49.337  0.00  0.00     0.152 C 
ATOM     41  O5  BDP d 303       6.246  34.935  49.809  0.00  0.00    -0.340 OA
ATOM     42  O2  BDP d 303       3.316  33.730  47.911  0.00  0.00    -0.388 OA
ATOM     43  H   BDP d 303       4.545  32.634  46.036  0.00  0.00     0.210 HD
ATOM     44  H   BDP d 303       5.547  32.271  48.090  0.00  0.00     0.091 H 
ATOM     45  H   BDP d 303       7.187  34.688  47.286  0.00  0.00     0.092 H 
ATOM     46  H   BDP d 303       4.763  35.129  47.533  0.00  0.00     0.094 H 
ATOM     47  H   BDP d 303       4.760  33.530  50.078  0.00  0.00     0.133 H 
ATOM     48  H   BDP d 303       7.177  33.042  49.802  0.00  0.00     0.104 H 
ATOM     49  H   BDP d 303       3.205  32.906  48.410  0.00  0.00     0.210 HD
ATOM     50  C1  ASG d 306      16.632  36.015  47.495  0.00  0.00     0.151 C 
ATOM     51  C4  ASG d 306      18.091  38.525  47.083  0.00  0.00     0.089 C 
ATOM     52  C6  ASG d 306      16.042  39.249  45.762  0.00  0.00     0.043 C 
ATOM     53  S   ASG d 306      19.820  39.149  45.277  0.00  0.00     0.252 S 
ATOM     54  O4  ASG d 306      18.751  38.139  45.876  0.00  0.00    -0.249 OA
ATOM     55  OSB ASG d 306      20.394  38.570  44.076  0.00  0.00    -0.572 OA
ATOM     56  OSA ASG d 306      19.163  40.400  44.944  0.00  0.00    -0.572 OA
ATOM     57  C3  ASG d 306      18.577  37.573  48.234  0.00  0.00    -0.014 C 
ATOM     58  C7  ASG d 306      19.058  33.857  48.454  0.00  0.00     0.214 C 
ATOM     59  N   ASG d 306      18.448  35.064  48.805  0.00  0.00    -0.352 N 
ATOM     60  C8  ASG d 306      19.306  32.964  49.645  0.00  0.00    -0.003 C 
ATOM     61  C2  ASG d 306      18.102  36.088  47.771  0.00  0.00     0.062 C 
ATOM     62  O5  ASG d 306      16.244  36.985  46.493  0.00  0.00    -0.349 OA
ATOM     63  O6  ASG d 306      14.658  39.004  45.518  0.00  0.00    -0.398 OA
ATOM     64  O7  ASG d 306      19.360  33.535  47.308  0.00  0.00    -0.274 OA
ATOM     65  OSC ASG d 306      20.861  39.391  46.251  0.00  0.00    -0.572 OA
ATOM     66  C5  ASG d 306      16.557  38.361  46.873  0.00  0.00     0.088 C 
ATOM     67  H   ASG d 306      16.090  36.240  48.390  0.00  0.00     0.132 H 
ATOM     68  H   ASG d 306      18.311  39.540  47.338  0.00  0.00     0.089 H 
ATOM     69  H   ASG d 306      16.597  39.051  44.868  0.00  0.00     0.078 H 
ATOM     70  H   ASG d 306      16.162  40.271  46.056  0.00  0.00     0.078 H 
ATOM     71  H   ASG d 306      18.121  37.842  49.164  0.00  0.00     0.040 H 
ATOM     72  H   ASG d 306      19.635  37.631  48.387  0.00  0.00     0.040 H 
ATOM     73  H   ASG d 306      18.242  35.244  49.751  0.00  0.00     0.163 HD
ATOM     74  H   ASG d 306      18.963  33.452  50.533  0.00  0.00     0.040 H 
ATOM     75  H   ASG d 306      20.353  32.764  49.729  0.00  0.00     0.040 H 
ATOM     76  H   ASG d 306      18.776  32.043  49.516  0.00  0.00     0.040 H 
ATOM     77  H   ASG d 306      18.629  35.883  46.861  0.00  0.00     0.080 H 
ATOM     78  H   ASG d 306      14.536  38.079  45.250  0.00  0.00     0.209 HD
ATOM     79  H   ASG d 306      16.092  38.629  47.799  0.00  0.00     0.090 H 
ATOM     80  C5  BDP d 305      14.664  33.040  47.510  0.00  0.00     0.152 C 
ATOM     81  O6B BDP d 305      13.475  34.166  49.192  0.00  0.00    -0.646 OA
ATOM     82  C6  BDP d 305      14.486  33.479  48.957  0.00  0.00     0.206 C 
ATOM     83  O4  BDP d 305      16.330  34.729  47.059  0.00  0.00    -0.348 OA
ATOM     84  O3  BDP d 305      15.775  34.661  44.272  0.00  0.00    -0.390 OA
ATOM     85  C2  BDP d 305      13.944  33.183  44.697  0.00  0.00     0.110 C 
ATOM     86  C1  BDP d 305      13.418  32.091  45.640  0.00  0.00     0.160 C 
ATOM     87  C4  BDP d 305      15.154  34.180  46.587  0.00  0.00     0.103 C 
ATOM     88  O6A BDP d 305      15.392  33.092  49.735  0.00  0.00    -0.646 OA
ATOM     89  C3  BDP d 305      15.317  33.635  45.155  0.00  0.00     0.092 C 
ATOM     90  O2  BDP d 305      13.991  32.652  43.370  0.00  0.00    -0.388 OA
ATOM     91  O5  BDP d 305      13.372  32.570  47.019  0.00  0.00    -0.340 OA
ATOM     92  H   BDP d 305      15.411  32.273  47.490  0.00  0.00     0.104 H 
ATOM     93  H   BDP d 305      15.871  34.298  43.377  0.00  0.00     0.210 HD
ATOM     94  H   BDP d 305      13.298  34.036  44.709  0.00  0.00     0.094 H 
ATOM     95  H   BDP d 305      14.087  31.258  45.582  0.00  0.00     0.133 H 
ATOM     96  H   BDP d 305      14.428  34.965  46.578  0.00  0.00     0.092 H 
ATOM     97  H   BDP d 305      16.030  32.838  45.147  0.00  0.00     0.091 H 
ATOM     98  H   BDP d 305      14.576  31.878  43.352  0.00  0.00     0.210 HD
ATOM     99  O6B BDP d 301       1.378  32.248  55.759  0.00  0.00    -0.646 OA
ATOM    100  C6  BDP d 301       0.614  32.818  54.948  0.00  0.00     0.206 C 
ATOM    101  O6A BDP d 301       0.200  32.434  53.832  0.00  0.00    -0.646 OA
ATOM    102  O5  BDP d 301      -0.405  34.080  56.729  0.00  0.00    -0.340 OA
ATOM    103  C5  BDP d 301       0.108  34.187  55.381  0.00  0.00     0.152 C 
ATOM    104  C3  BDP d 301       0.552  36.617  55.808  0.00  0.00     0.092 C 
ATOM    105  C1  BDP d 301      -0.934  35.341  57.243  0.00  0.00     0.156 C 
ATOM    106  O1  BDP d 301      -1.468  35.055  58.625  0.00  0.00    -0.368 OA
ATOM    107  C4  BDP d 301       1.166  35.288  55.300  0.00  0.00     0.103 C 
ATOM    108  C2  BDP d 301       0.098  36.430  57.248  0.00  0.00     0.110 C 
ATOM    109  O2  BDP d 301      -0.501  37.617  57.762  0.00  0.00    -0.388 OA
ATOM    110  O4  BDP d 301       1.422  35.420  53.948  0.00  0.00    -0.348 OA
ATOM    111  O3  BDP d 301       1.533  37.655  55.762  0.00  0.00    -0.390 OA
ATOM    112  H   BDP d 301      -0.663  34.479  54.699  0.00  0.00     0.104 H 
ATOM    113  H   BDP d 301      -0.277  36.885  55.187  0.00  0.00     0.091 H 
ATOM    114  H   BDP d 301      -1.714  35.706  56.607  0.00  0.00     0.133 H 
ATOM    115  H   BDP d 301      -0.750  34.724  59.187  0.00  0.00     0.212 HD
ATOM    116  H   BDP d 301       2.038  35.062  55.876  0.00  0.00     0.092 H 
ATOM    117  H   BDP d 301       0.941  36.189  57.862  0.00  0.00     0.094 H 
ATOM    118  H   BDP d 301      -1.268  37.853  57.219  0.00  0.00     0.210 HD
ATOM    119  H   BDP d 301       2.286  37.414  56.324  0.00  0.00     0.210 HD
ATOM    120  OSC ASG d 304       9.755  29.877  41.849  0.00  0.00    -0.572 OA
ATOM    121  O3  ASG d 304      12.121  31.694  45.249  0.00  0.00    -0.348 OA
ATOM    122  C5  ASG d 304       9.314  33.981  44.199  0.00  0.00     0.090 C 
ATOM    123  C6  ASG d 304       8.562  34.281  42.925  0.00  0.00     0.043 C 
ATOM    124  O4  ASG d 304       9.825  31.704  43.526  0.00  0.00    -0.246 OA
ATOM    125  C7  ASG d 304      10.251  31.028  48.618  0.00  0.00     0.214 C 
ATOM    126  C8  ASG d 304      11.059  30.994  49.896  0.00  0.00    -0.003 C 
ATOM    127  S   ASG d 304      10.365  31.161  42.126  0.00  0.00     0.252 S 
ATOM    128  OSB ASG d 304      10.028  32.098  41.069  0.00  0.00    -0.572 OA
ATOM    129  N   ASG d 304      10.711  31.978  47.718  0.00  0.00    -0.349 N 
ATOM    130  C4  ASG d 304      10.420  32.917  44.012  0.00  0.00     0.114 C 
ATOM    131  C3  ASG d 304      11.100  32.671  45.375  0.00  0.00     0.094 C 
ATOM    132  C1  ASG d 304       8.975  33.265  46.488  0.00  0.00     0.154 C 
ATOM    133  O7  ASG d 304       9.298  30.294  48.415  0.00  0.00    -0.274 OA
ATOM    134  O6  ASG d 304       7.879  35.532  43.024  0.00  0.00    -0.398 OA
ATOM    135  O5  ASG d 304       8.350  33.531  45.198  0.00  0.00    -0.349 OA
ATOM    136  C2  ASG d 304      10.065  32.194  46.380  0.00  0.00     0.087 C 
ATOM    137  OSA ASG d 304      11.811  31.015  42.185  0.00  0.00    -0.572 OA
ATOM    138  H   ASG d 304       9.810  34.875  44.513  0.00  0.00     0.090 H 
ATOM    139  H   ASG d 304       7.848  33.505  42.747  0.00  0.00     0.078 H 
ATOM    140  H   ASG d 304       9.261  34.334  42.117  0.00  0.00     0.078 H 
ATOM    141  H   ASG d 304      11.839  31.724  49.844  0.00  0.00     0.040 H 
ATOM    142  H   ASG d 304      11.488  30.022  50.020  0.00  0.00     0.040 H 
ATOM    143  H   ASG d 304      10.421  31.211  50.727  0.00  0.00     0.040 H 
ATOM    144  H   ASG d 304      11.488  32.530  47.966  0.00  0.00     0.163 HD
ATOM    145  H   ASG d 304      11.152  33.252  43.306  0.00  0.00     0.093 H 
ATOM    146  H   ASG d 304      11.537  33.588  45.712  0.00  0.00     0.091 H 
ATOM    147  H   ASG d 304       9.437  34.166  46.835  0.00  0.00     0.132 H 
ATOM    148  H   ASG d 304       7.241  35.495  43.754  0.00  0.00     0.209 HD
ATOM    149  H   ASG d 304       9.640  31.267  46.060  0.00  0.00     0.084 H 
ENDROOT
TORSDOF 38
ENDMDL
MODEL 58
REMARK VINA RESULT:      -5.1      4.100     15.480
REMARK  0 active torsions:
REMARK  status: ('A' for Active; 'I' for Inactive)
REMARK       I    between atoms: C6_2  and  C5_74 
REMARK       I    between atoms: C1_3  and  O4_24 
REMARK       I    between atoms: O6_4  and  C6_26 
REMARK       I    between atoms: C5_5  and  C6_12 
REMARK       I    between atoms: C4_6  and  O4_22 
REMARK       I    between atoms: C6_8  and  C5_90 
REMARK       I    between atoms: C6_8  and  O6_83 
REMARK       I    between atoms: O3_11  and  C3_60 
REMARK       I    between atoms: O3_11  and  C1_29 
REMARK       I    between atoms: C5_13  and  C6_18 
REMARK       I    between atoms: O4_14  and  C4_88 
REMARK       I    between atoms: O4_14  and  S_15 
REMARK       I    between atoms: C6_16  and  C5_28 
REMARK       I    between atoms: S_17  and  O4_22 
REMARK       I    between atoms: C6_18  and  O6_66 
REMARK       I    between atoms: O4_20  and  C4_46 
REMARK       I    between atoms: O4_20  and  C1_61 
REMARK       I    between atoms: O4_21  and  C4_54 
REMARK       I    between atoms: O4_21  and  S_40 
REMARK       I    between atoms: O4_24  and  C4_35 
REMARK       I    between atoms: O3_25  and  C3_48 
REMARK       I    between atoms: C6_26  and  C5_50 
REMARK       I    between atoms: C2_27  and  O2_55 
REMARK       I    between atoms: O3_31  and  C3_37 
REMARK       I    between atoms: C2_32  and  N_72 
REMARK       I    between atoms: C7_33  and  C8_39 
REMARK       I    between atoms: C7_33  and  N_52 
REMARK       I    between atoms: C1_34  and  O4_86 
REMARK       I    between atoms: C3_36  and  O3_87 
REMARK       I    between atoms: C2_47  and  O2_85 
REMARK       I    between atoms: N_52  and  C2_71 
REMARK       I    between atoms: C3_53  and  O3_81 
REMARK       I    between atoms: C1_56  and  O3_81 
REMARK       I    between atoms: C7_57  and  C8_64 
REMARK       I    between atoms: C7_57  and  N_63 
REMARK       I    between atoms: C8_58  and  C7_73 
REMARK       I    between atoms: C1_59  and  O1_68 
REMARK       I    between atoms: N_63  and  C2_67 
REMARK       I    between atoms: C4_69  and  O4_86 
REMARK       I    between atoms: N_72  and  C7_73 
REMARK       I    between atoms: C2_77  and  O2_82 
ROOT
ATOM      1  OSB ASG d 302       7.169  30.165  52.978  0.00  0.00    -0.572 OA
ATOM      2  O6  ASG d 302       4.753  33.278  51.033  0.00  0.00    -0.398 OA
ATOM      3  O4  ASG d 302       7.131  32.152  54.473  0.00  0.00    -0.246 OA
ATOM      4  S   ASG d 302       7.842  30.763  54.115  0.00  0.00     0.252 S 
ATOM      5  C6  ASG d 302       5.659  32.702  51.968  0.00  0.00     0.043 C 
ATOM      6  C2  ASG d 302       6.740  34.712  55.598  0.00  0.00     0.087 C 
ATOM      7  C1  ASG d 302       5.498  35.081  54.801  0.00  0.00     0.154 C 
ATOM      8  O5  ASG d 302       5.130  34.041  53.865  0.00  0.00    -0.349 OA
ATOM      9  C5  ASG d 302       6.183  33.750  52.916  0.00  0.00     0.090 C 
ATOM     10  O7  ASG d 302       7.157  34.543  58.442  0.00  0.00    -0.274 OA
ATOM     11  C3  ASG d 302       7.864  34.461  54.610  0.00  0.00     0.094 C 
ATOM     12  C8  ASG d 302       7.656  36.885  58.624  0.00  0.00    -0.003 C 
ATOM     13  OSA ASG d 302       9.240  30.984  53.792  0.00  0.00    -0.572 OA
ATOM     14  N   ASG d 302       7.103  35.830  56.520  0.00  0.00    -0.349 N 
ATOM     15  C7  ASG d 302       7.282  35.622  57.885  0.00  0.00     0.214 C 
ATOM     16  OSC ASG d 302       7.745  29.875  55.251  0.00  0.00    -0.572 OA
ATOM     17  O3  ASG d 302       8.975  34.068  55.332  0.00  0.00    -0.348 OA
ATOM     18  C4  ASG d 302       7.450  33.310  53.677  0.00  0.00     0.114 C 
ATOM     19  H   ASG d 302       4.427  32.591  50.433  0.00  0.00     0.209 HD
ATOM     20  H   ASG d 302       6.480  32.265  51.439  0.00  0.00     0.078 H 
ATOM     21  H   ASG d 302       5.143  31.953  52.533  0.00  0.00     0.078 H 
ATOM     22  H   ASG d 302       6.563  33.838  56.190  0.00  0.00     0.084 H 
ATOM     23  H   ASG d 302       5.721  35.974  54.256  0.00  0.00     0.132 H 
ATOM     24  H   ASG d 302       6.461  34.610  52.343  0.00  0.00     0.090 H 
ATOM     25  H   ASG d 302       8.073  35.339  54.034  0.00  0.00     0.091 H 
ATOM     26  H   ASG d 302       7.780  36.666  59.664  0.00  0.00     0.040 H 
ATOM     27  H   ASG d 302       6.881  37.612  58.503  0.00  0.00     0.040 H 
ATOM     28  H   ASG d 302       8.572  37.271  58.230  0.00  0.00     0.040 H 
ATOM     29  H   ASG d 302       7.219  36.736  56.153  0.00  0.00     0.163 HD
ATOM     30  H   ASG d 302       8.241  33.075  52.996  0.00  0.00     0.093 H 
ATOM     31  C6  BDP d 303      12.013  35.405  51.995  0.00  0.00     0.206 C 
ATOM     32  O4  BDP d 303      13.963  35.911  54.180  0.00  0.00    -0.348 OA
ATOM     33  O3  BDP d 303      13.453  34.881  56.768  0.00  0.00    -0.390 OA
ATOM     34  C3  BDP d 303      12.409  35.301  55.874  0.00  0.00     0.092 C 
ATOM     35  O6B BDP d 303      12.497  34.307  51.653  0.00  0.00    -0.646 OA
ATOM     36  C4  BDP d 303      12.852  35.115  54.416  0.00  0.00     0.103 C 
ATOM     37  C2  BDP d 303      11.183  34.440  56.109  0.00  0.00     0.110 C 
ATOM     38  O6A BDP d 303      11.749  36.413  51.300  0.00  0.00    -0.646 OA
ATOM     39  C1  BDP d 303      10.086  34.872  55.149  0.00  0.00     0.160 C 
ATOM     40  C5  BDP d 303      11.696  35.560  53.480  0.00  0.00     0.152 C 
ATOM     41  O5  BDP d 303      10.516  34.758  53.766  0.00  0.00    -0.340 OA
ATOM     42  O2  BDP d 303      10.712  34.598  57.451  0.00  0.00    -0.388 OA
ATOM     43  H   BDP d 303      13.162  35.004  57.685  0.00  0.00     0.210 HD
ATOM     44  H   BDP d 303      12.192  36.333  56.057  0.00  0.00     0.091 H 
ATOM     45  H   BDP d 303      13.094  34.089  54.232  0.00  0.00     0.092 H 
ATOM     46  H   BDP d 303      11.441  33.414  55.947  0.00  0.00     0.094 H 
ATOM     47  H   BDP d 303       9.853  35.896  55.353  0.00  0.00     0.133 H 
ATOM     48  H   BDP d 303      11.538  36.601  53.673  0.00  0.00     0.104 H 
ATOM     49  H   BDP d 303      10.475  35.526  57.603  0.00  0.00     0.210 HD
ATOM     50  C1  ASG d 306      17.805  34.466  45.945  0.00  0.00     0.151 C 
ATOM     51  C4  ASG d 306      18.273  32.272  44.057  0.00  0.00     0.089 C 
ATOM     52  C6  ASG d 306      17.990  30.757  46.080  0.00  0.00     0.043 C 
ATOM     53  S   ASG d 306      20.491  31.241  43.246  0.00  0.00     0.252 S 
ATOM     54  O4  ASG d 306      19.694  32.225  44.202  0.00  0.00    -0.249 OA
ATOM     55  OSB ASG d 306      21.910  31.356  43.527  0.00  0.00    -0.572 OA
ATOM     56  OSA ASG d 306      20.058  29.877  43.495  0.00  0.00    -0.572 OA
ATOM     57  C3  ASG d 306      17.886  33.677  43.469  0.00  0.00    -0.014 C 
ATOM     58  C7  ASG d 306      18.963  37.179  44.283  0.00  0.00     0.214 C 
ATOM     59  N   ASG d 306      18.029  36.145  44.198  0.00  0.00    -0.352 N 
ATOM     60  C8  ASG d 306      18.397  38.509  43.853  0.00  0.00    -0.003 C 
ATOM     61  C2  ASG d 306      18.382  34.744  44.591  0.00  0.00     0.062 C 
ATOM     62  O5  ASG d 306      18.125  33.122  46.377  0.00  0.00    -0.349 OA
ATOM     63  O6  ASG d 306      17.482  30.660  47.409  0.00  0.00    -0.398 OA
ATOM     64  O7  ASG d 306      20.120  37.044  44.671  0.00  0.00    -0.274 OA
ATOM     65  OSC ASG d 306      20.234  31.587  41.865  0.00  0.00    -0.572 OA
ATOM     66  C5  ASG d 306      17.634  32.092  45.465  0.00  0.00     0.088 C 
ATOM     67  H   ASG d 306      16.739  34.548  45.902  0.00  0.00     0.132 H 
ATOM     68  H   ASG d 306      17.925  31.500  43.403  0.00  0.00     0.089 H 
ATOM     69  H   ASG d 306      19.055  30.654  46.102  0.00  0.00     0.078 H 
ATOM     70  H   ASG d 306      17.554  29.979  45.488  0.00  0.00     0.078 H 
ATOM     71  H   ASG d 306      16.828  33.746  43.325  0.00  0.00     0.040 H 
ATOM     72  H   ASG d 306      18.335  33.854  42.515  0.00  0.00     0.040 H 
ATOM     73  H   ASG d 306      17.120  36.340  43.873  0.00  0.00     0.163 HD
ATOM     74  H   ASG d 306      17.376  38.383  43.557  0.00  0.00     0.040 H 
ATOM     75  H   ASG d 306      18.964  38.888  43.027  0.00  0.00     0.040 H 
ATOM     76  H   ASG d 306      18.450  39.200  44.668  0.00  0.00     0.040 H 
ATOM     77  H   ASG d 306      19.446  34.638  44.647  0.00  0.00     0.080 H 
ATOM     78  H   ASG d 306      17.870  31.360  47.956  0.00  0.00     0.209 HD
ATOM     79  H   ASG d 306      16.574  32.160  45.329  0.00  0.00     0.090 H 
ATOM     80  C5  BDP d 305      17.493  36.834  48.594  0.00  0.00     0.152 C 
ATOM     81  O6B BDP d 305      15.208  36.329  48.405  0.00  0.00    -0.646 OA
ATOM     82  C6  BDP d 305      16.136  37.008  47.927  0.00  0.00     0.206 C 
ATOM     83  O4  BDP d 305      18.324  35.394  46.843  0.00  0.00    -0.348 OA
ATOM     84  O3  BDP d 305      20.235  34.221  48.590  0.00  0.00    -0.390 OA
ATOM     85  C2  BDP d 305      19.278  35.435  50.413  0.00  0.00     0.110 C 
ATOM     86  C1  BDP d 305      18.531  36.721  50.798  0.00  0.00     0.160 C 
ATOM     87  C4  BDP d 305      18.190  35.508  48.213  0.00  0.00     0.103 C 
ATOM     88  O6A BDP d 305      16.126  37.818  46.967  0.00  0.00    -0.646 OA
ATOM     89  C3  BDP d 305      19.555  35.433  48.923  0.00  0.00     0.092 C 
ATOM     90  O2  BDP d 305      20.492  35.374  51.166  0.00  0.00    -0.388 OA
ATOM     91  O5  BDP d 305      17.290  36.852  50.041  0.00  0.00    -0.340 OA
ATOM     92  H   BDP d 305      18.125  37.632  48.262  0.00  0.00     0.104 H 
ATOM     93  H   BDP d 305      21.090  34.194  49.047  0.00  0.00     0.210 HD
ATOM     94  H   BDP d 305      18.684  34.574  50.637  0.00  0.00     0.094 H 
ATOM     95  H   BDP d 305      19.168  37.550  50.571  0.00  0.00     0.133 H 
ATOM     96  H   BDP d 305      17.588  34.685  48.535  0.00  0.00     0.092 H 
ATOM     97  H   BDP d 305      20.168  36.258  48.625  0.00  0.00     0.091 H 
ATOM     98  H   BDP d 305      21.035  36.153  50.968  0.00  0.00     0.210 HD
ATOM     99  O6B BDP d 301       3.836  38.854  55.983  0.00  0.00    -0.646 OA
ATOM    100  C6  BDP d 301       3.902  37.889  56.776  0.00  0.00     0.206 C 
ATOM    101  O6A BDP d 301       4.655  37.710  57.758  0.00  0.00    -0.646 OA
ATOM    102  O5  BDP d 301       1.597  37.329  56.355  0.00  0.00    -0.340 OA
ATOM    103  C5  BDP d 301       2.916  36.758  56.512  0.00  0.00     0.152 C 
ATOM    104  C3  BDP d 301       2.182  34.823  55.099  0.00  0.00     0.092 C 
ATOM    105  C1  BDP d 301       0.564  36.325  56.111  0.00  0.00     0.156 C 
ATOM    106  O1  BDP d 301      -0.747  37.067  56.018  0.00  0.00    -0.368 OA
ATOM    107  C4  BDP d 301       3.275  35.903  55.297  0.00  0.00     0.103 C 
ATOM    108  C2  BDP d 301       0.843  35.512  54.881  0.00  0.00     0.110 C 
ATOM    109  O2  BDP d 301      -0.209  34.563  54.719  0.00  0.00    -0.388 OA
ATOM    110  O4  BDP d 301       4.449  35.268  55.656  0.00  0.00    -0.348 OA
ATOM    111  O3  BDP d 301       2.486  34.025  53.953  0.00  0.00    -0.390 OA
ATOM    112  H   BDP d 301       2.952  36.095  57.350  0.00  0.00     0.104 H 
ATOM    113  H   BDP d 301       2.142  34.196  55.965  0.00  0.00     0.091 H 
ATOM    114  H   BDP d 301       0.538  35.613  56.909  0.00  0.00     0.133 H 
ATOM    115  H   BDP d 301      -0.705  37.707  55.291  0.00  0.00     0.212 HD
ATOM    116  H   BDP d 301       3.363  36.480  54.400  0.00  0.00     0.092 H 
ATOM    117  H   BDP d 301       0.889  36.112  53.997  0.00  0.00     0.094 H 
ATOM    118  H   BDP d 301      -0.267  34.007  55.511  0.00  0.00     0.210 HD
ATOM    119  H   BDP d 301       2.523  34.592  53.166  0.00  0.00     0.210 HD
ATOM    120  OSC ASG d 304      20.083  36.575  56.300  0.00  0.00    -0.572 OA
ATOM    121  O3  ASG d 304      18.227  36.713  52.177  0.00  0.00    -0.348 OA
ATOM    122  C5  ASG d 304      16.896  33.787  54.147  0.00  0.00     0.090 C 
ATOM    123  C6  ASG d 304      17.406  32.875  55.237  0.00  0.00     0.043 C 
ATOM    124  O4  ASG d 304      18.314  35.635  54.836  0.00  0.00    -0.246 OA
ATOM    125  C7  ASG d 304      14.709  38.404  52.407  0.00  0.00     0.214 C 
ATOM    126  C8  ASG d 304      14.156  39.087  51.176  0.00  0.00    -0.003 C 
ATOM    127  S   ASG d 304      19.862  35.631  55.223  0.00  0.00     0.252 S 
ATOM    128  OSB ASG d 304      20.261  34.302  55.650  0.00  0.00    -0.572 OA
ATOM    129  N   ASG d 304      15.422  37.253  52.106  0.00  0.00    -0.349 N 
ATOM    130  C4  ASG d 304      17.938  34.839  53.701  0.00  0.00     0.114 C 
ATOM    131  C3  ASG d 304      17.304  35.727  52.611  0.00  0.00     0.094 C 
ATOM    132  C1  ASG d 304      15.091  35.319  53.634  0.00  0.00     0.154 C 
ATOM    133  O7  ASG d 304      14.536  38.830  53.537  0.00  0.00    -0.274 OA
ATOM    134  O6  ASG d 304      16.618  31.686  55.310  0.00  0.00    -0.398 OA
ATOM    135  O5  ASG d 304      15.693  34.451  54.639  0.00  0.00    -0.349 OA
ATOM    136  C2  ASG d 304      16.063  36.407  53.167  0.00  0.00     0.087 C 
ATOM    137  OSA ASG d 304      20.654  36.013  54.065  0.00  0.00    -0.572 OA
ATOM    138  H   ASG d 304      16.686  33.192  53.284  0.00  0.00     0.090 H 
ATOM    139  H   ASG d 304      17.357  33.387  56.174  0.00  0.00     0.078 H 
ATOM    140  H   ASG d 304      18.417  32.605  55.014  0.00  0.00     0.078 H 
ATOM    141  H   ASG d 304      14.435  38.533  50.304  0.00  0.00     0.040 H 
ATOM    142  H   ASG d 304      14.553  40.079  51.110  0.00  0.00     0.040 H 
ATOM    143  H   ASG d 304      13.089  39.134  51.243  0.00  0.00     0.040 H 
ATOM    144  H   ASG d 304      15.510  36.982  51.164  0.00  0.00     0.163 HD
ATOM    145  H   ASG d 304      18.811  34.363  53.307  0.00  0.00     0.093 H 
ATOM    146  H   ASG d 304      17.036  35.112  51.777  0.00  0.00     0.091 H 
ATOM    147  H   ASG d 304      14.834  34.725  52.781  0.00  0.00     0.132 H 
ATOM    148  H   ASG d 304      15.698  31.919  55.512  0.00  0.00     0.209 HD
ATOM    149  H   ASG d 304      16.326  37.041  53.988  0.00  0.00     0.084 H 
ENDROOT
TORSDOF 38
ENDMDL
MODEL 59
REMARK VINA RESULT:      -5.0      5.803      8.928
REMARK  0 active torsions:
REMARK  status: ('A' for Active; 'I' for Inactive)
REMARK       I    between atoms: C6_2  and  C5_74 
REMARK       I    between atoms: C1_3  and  O4_24 
REMARK       I    between atoms: O6_4  and  C6_26 
REMARK       I    between atoms: C5_5  and  C6_12 
REMARK       I    between atoms: C4_6  and  O4_22 
REMARK       I    between atoms: C6_8  and  C5_90 
REMARK       I    between atoms: C6_8  and  O6_83 
REMARK       I    between atoms: O3_11  and  C3_60 
REMARK       I    between atoms: O3_11  and  C1_29 
REMARK       I    between atoms: C5_13  and  C6_18 
REMARK       I    between atoms: O4_14  and  C4_88 
REMARK       I    between atoms: O4_14  and  S_15 
REMARK       I    between atoms: C6_16  and  C5_28 
REMARK       I    between atoms: S_17  and  O4_22 
REMARK       I    between atoms: C6_18  and  O6_66 
REMARK       I    between atoms: O4_20  and  C4_46 
REMARK       I    between atoms: O4_20  and  C1_61 
REMARK       I    between atoms: O4_21  and  C4_54 
REMARK       I    between atoms: O4_21  and  S_40 
REMARK       I    between atoms: O4_24  and  C4_35 
REMARK       I    between atoms: O3_25  and  C3_48 
REMARK       I    between atoms: C6_26  and  C5_50 
REMARK       I    between atoms: C2_27  and  O2_55 
REMARK       I    between atoms: O3_31  and  C3_37 
REMARK       I    between atoms: C2_32  and  N_72 
REMARK       I    between atoms: C7_33  and  C8_39 
REMARK       I    between atoms: C7_33  and  N_52 
REMARK       I    between atoms: C1_34  and  O4_86 
REMARK       I    between atoms: C3_36  and  O3_87 
REMARK       I    between atoms: C2_47  and  O2_85 
REMARK       I    between atoms: N_52  and  C2_71 
REMARK       I    between atoms: C3_53  and  O3_81 
REMARK       I    between atoms: C1_56  and  O3_81 
REMARK       I    between atoms: C7_57  and  C8_64 
REMARK       I    between atoms: C7_57  and  N_63 
REMARK       I    between atoms: C8_58  and  C7_73 
REMARK       I    between atoms: C1_59  and  O1_68 
REMARK       I    between atoms: N_63  and  C2_67 
REMARK       I    between atoms: C4_69  and  O4_86 
REMARK       I    between atoms: N_72  and  C7_73 
REMARK       I    between atoms: C2_77  and  O2_82 
ROOT
ATOM      1  OSB ASG d 302      16.812  39.564  47.658  0.00  0.00    -0.572 OA
ATOM      2  O6  ASG d 302      19.499  36.675  45.721  0.00  0.00    -0.398 OA
ATOM      3  O4  ASG d 302      17.030  37.593  49.158  0.00  0.00    -0.246 OA
ATOM      4  S   ASG d 302      16.196  38.912  48.797  0.00  0.00     0.252 S 
ATOM      5  C6  ASG d 302      18.544  37.171  46.655  0.00  0.00     0.043 C 
ATOM      6  C2  ASG d 302      17.650  35.083  50.292  0.00  0.00     0.087 C 
ATOM      7  C1  ASG d 302      18.920  34.825  49.495  0.00  0.00     0.154 C 
ATOM      8  O5  ASG d 302      19.192  35.891  48.556  0.00  0.00    -0.349 OA
ATOM      9  C5  ASG d 302      18.118  36.082  47.606  0.00  0.00     0.090 C 
ATOM     10  O7  ASG d 302      17.220  35.223  53.136  0.00  0.00    -0.274 OA
ATOM     11  C3  ASG d 302      16.507  35.229  49.303  0.00  0.00     0.094 C 
ATOM     12  C8  ASG d 302      16.934  32.846  53.325  0.00  0.00    -0.003 C 
ATOM     13  OSA ASG d 302      14.824  38.565  48.476  0.00  0.00    -0.572 OA
ATOM     14  N   ASG d 302      17.389  33.940  51.217  0.00  0.00    -0.349 N 
ATOM     15  C7  ASG d 302      17.193  34.135  52.581  0.00  0.00     0.214 C 
ATOM     16  OSC ASG d 302      16.214  39.809  49.930  0.00  0.00    -0.572 OA
ATOM     17  O3  ASG d 302      15.366  35.522  50.025  0.00  0.00    -0.348 OA
ATOM     18  C4  ASG d 302      16.816  36.409  48.366  0.00  0.00     0.114 C 
ATOM     19  H   ASG d 302      19.761  37.388  45.119  0.00  0.00     0.209 HD
ATOM     20  H   ASG d 302      17.687  37.530  46.125  0.00  0.00     0.078 H 
ATOM     21  H   ASG d 302      18.991  37.965  47.217  0.00  0.00     0.078 H 
ATOM     22  H   ASG d 302      17.747  35.971  50.881  0.00  0.00     0.084 H 
ATOM     23  H   ASG d 302      18.778  33.914  48.953  0.00  0.00     0.132 H 
ATOM     24  H   ASG d 302      17.917  35.200  47.036  0.00  0.00     0.090 H 
ATOM     25  H   ASG d 302      16.378  34.334  48.731  0.00  0.00     0.091 H 
ATOM     26  H   ASG d 302      16.791  33.057  54.364  0.00  0.00     0.040 H 
ATOM     27  H   ASG d 302      17.772  32.191  53.206  0.00  0.00     0.040 H 
ATOM     28  H   ASG d 302      16.056  32.378  52.932  0.00  0.00     0.040 H 
ATOM     29  H   ASG d 302      17.355  33.026  50.853  0.00  0.00     0.163 HD
ATOM     30  H   ASG d 302      16.006  36.570  47.685  0.00  0.00     0.093 H 
ATOM     31  C6  BDP d 303      12.459  33.906  46.693  0.00  0.00     0.206 C 
ATOM     32  O4  BDP d 303      10.564  33.234  48.881  0.00  0.00    -0.348 OA
ATOM     33  O3  BDP d 303      10.980  34.313  51.465  0.00  0.00    -0.390 OA
ATOM     34  C3  BDP d 303      12.057  33.987  50.573  0.00  0.00     0.092 C 
ATOM     35  O6B BDP d 303      11.879  34.955  46.348  0.00  0.00    -0.646 OA
ATOM     36  C4  BDP d 303      11.599  34.128  49.114  0.00  0.00     0.103 C 
ATOM     37  C2  BDP d 303      13.201  34.955  50.804  0.00  0.00     0.110 C 
ATOM     38  O6A BDP d 303      12.814  32.924  46.001  0.00  0.00    -0.646 OA
ATOM     39  C1  BDP d 303      14.332  34.621  49.845  0.00  0.00     0.160 C 
ATOM     40  C5  BDP d 303      12.790  33.785  48.179  0.00  0.00     0.152 C 
ATOM     41  O5  BDP d 303      13.893  34.691  48.462  0.00  0.00    -0.340 OA
ATOM     42  O2  BDP d 303      13.685  34.845  52.146  0.00  0.00    -0.388 OA
ATOM     43  H   BDP d 303      11.281  34.220  52.382  0.00  0.00     0.210 HD
ATOM     44  H   BDP d 303      12.366  32.979  50.759  0.00  0.00     0.091 H 
ATOM     45  H   BDP d 303      11.265  35.127  48.927  0.00  0.00     0.092 H 
ATOM     46  H   BDP d 303      12.851  35.953  50.639  0.00  0.00     0.094 H 
ATOM     47  H   BDP d 303      14.656  33.623  50.052  0.00  0.00     0.133 H 
ATOM     48  H   BDP d 303      13.041  32.764  48.375  0.00  0.00     0.104 H 
ATOM     49  H   BDP d 303      14.004  33.942  52.302  0.00  0.00     0.210 HD
ATOM     50  C1  ASG d 306       6.605  34.301  40.644  0.00  0.00     0.151 C 
ATOM     51  C4  ASG d 306       5.941  36.437  38.749  0.00  0.00     0.089 C 
ATOM     52  C6  ASG d 306       6.087  37.978  40.767  0.00  0.00     0.043 C 
ATOM     53  S   ASG d 306       3.639  37.262  37.936  0.00  0.00     0.252 S 
ATOM     54  O4  ASG d 306       4.522  36.356  38.895  0.00  0.00    -0.249 OA
ATOM     55  OSB ASG d 306       2.236  37.020  38.219  0.00  0.00    -0.572 OA
ATOM     56  OSA ASG d 306       3.948  38.660  38.180  0.00  0.00    -0.572 OA
ATOM     57  C3  ASG d 306       6.453  35.072  38.166  0.00  0.00    -0.014 C 
ATOM     58  C7  ASG d 306       5.696  31.488  38.991  0.00  0.00     0.214 C 
ATOM     59  N   ASG d 306       6.533  32.603  38.902  0.00  0.00    -0.352 N 
ATOM     60  C8  ASG d 306       6.379  30.214  38.564  0.00  0.00    -0.003 C 
ATOM     61  C2  ASG d 306       6.055  33.967  39.291  0.00  0.00     0.062 C 
ATOM     62  O5  ASG d 306       6.166  35.612  41.072  0.00  0.00    -0.349 OA
ATOM     63  O6  ASG d 306       6.585  38.125  42.096  0.00  0.00    -0.398 OA
ATOM     64  O7  ASG d 306       4.532  31.521  39.379  0.00  0.00    -0.274 OA
ATOM     65  OSC ASG d 306       3.925  36.936  36.556  0.00  0.00    -0.572 OA
ATOM     66  C5  ASG d 306       6.562  36.678  40.156  0.00  0.00     0.088 C 
ATOM     67  H   ASG d 306       7.674  34.315  40.601  0.00  0.00     0.132 H 
ATOM     68  H   ASG d 306       6.218  37.235  38.093  0.00  0.00     0.089 H 
ATOM     69  H   ASG d 306       5.017  37.985  40.790  0.00  0.00     0.078 H 
ATOM     70  H   ASG d 306       6.451  38.791  40.172  0.00  0.00     0.078 H 
ATOM     71  H   ASG d 306       7.513  35.097  38.021  0.00  0.00     0.040 H 
ATOM     72  H   ASG d 306       6.022  34.852  37.212  0.00  0.00     0.040 H 
ATOM     73  H   ASG d 306       7.456  32.490  38.577  0.00  0.00     0.163 HD
ATOM     74  H   ASG d 306       7.384  30.430  38.268  0.00  0.00     0.040 H 
ATOM     75  H   ASG d 306       5.849  29.783  37.741  0.00  0.00     0.040 H 
ATOM     76  H   ASG d 306       6.389  29.523  39.382  0.00  0.00     0.040 H 
ATOM     77  H   ASG d 306       4.986  33.978  39.348  0.00  0.00     0.080 H 
ATOM     78  H   ASG d 306       6.261  37.394  42.645  0.00  0.00     0.209 HD
ATOM     79  H   ASG d 306       7.623  36.706  40.020  0.00  0.00     0.090 H 
ATOM     80  C5  BDP d 305       7.130  31.978  43.300  0.00  0.00     0.152 C 
ATOM     81  O6B BDP d 305       9.360  32.687  43.108  0.00  0.00    -0.646 OA
ATOM     82  C6  BDP d 305       8.497  31.926  42.632  0.00  0.00     0.206 C 
ATOM     83  O4  BDP d 305       6.173  33.332  41.545  0.00  0.00    -0.348 OA
ATOM     84  O3  BDP d 305       4.164  34.334  43.289  0.00  0.00    -0.390 OA
ATOM     85  C2  BDP d 305       5.227  33.217  45.116  0.00  0.00     0.110 C 
ATOM     86  C1  BDP d 305       6.086  32.005  45.505  0.00  0.00     0.160 C 
ATOM     87  C4  BDP d 305       6.316  33.235  42.915  0.00  0.00     0.103 C 
ATOM     88  O6A BDP d 305       8.580  31.117  41.676  0.00  0.00    -0.646 OA
ATOM     89  C3  BDP d 305       4.950  33.189  43.626  0.00  0.00     0.092 C 
ATOM     90  O2  BDP d 305       4.013  33.171  45.869  0.00  0.00    -0.388 OA
ATOM     91  O5  BDP d 305       7.334  31.984  44.746  0.00  0.00    -0.340 OA
ATOM     92  H   BDP d 305       6.572  31.126  42.971  0.00  0.00     0.104 H 
ATOM     93  H   BDP d 305       3.310  34.286  43.746  0.00  0.00     0.210 HD
ATOM     94  H   BDP d 305       5.741  34.129  45.336  0.00  0.00     0.094 H 
ATOM     95  H   BDP d 305       5.527  31.121  45.280  0.00  0.00     0.133 H 
ATOM     96  H   BDP d 305       6.842  34.110  43.234  0.00  0.00     0.092 H 
ATOM     97  H   BDP d 305       4.414  32.312  43.330  0.00  0.00     0.091 H 
ATOM     98  H   BDP d 305       3.542  32.346  45.674  0.00  0.00     0.210 HD
ATOM     99  O6B BDP d 301      20.916  31.221  50.688  0.00  0.00    -0.646 OA
ATOM    100  C6  BDP d 301      20.763  32.178  51.478  0.00  0.00     0.206 C 
ATOM    101  O6A BDP d 301      19.997  32.292  52.460  0.00  0.00    -0.646 OA
ATOM    102  O5  BDP d 301      23.008  32.943  51.054  0.00  0.00    -0.340 OA
ATOM    103  C5  BDP d 301      21.642  33.392  51.210  0.00  0.00     0.152 C 
ATOM    104  C3  BDP d 301      22.199  35.382  49.791  0.00  0.00     0.092 C 
ATOM    105  C1  BDP d 301      23.946  34.034  50.806  0.00  0.00     0.156 C 
ATOM    106  O1  BDP d 301      25.318  33.413  50.715  0.00  0.00    -0.368 OA
ATOM    107  C4  BDP d 301      21.208  34.208  49.992  0.00  0.00     0.103 C 
ATOM    108  C2  BDP d 301      23.595  34.815  49.574  0.00  0.00     0.110 C 
ATOM    109  O2  BDP d 301      24.557  35.854  49.408  0.00  0.00    -0.388 OA
ATOM    110  O4  BDP d 301      19.982  34.735  50.350  0.00  0.00    -0.348 OA
ATOM    111  O3  BDP d 301      21.825  36.145  48.642  0.00  0.00    -0.390 OA
ATOM    112  H   BDP d 301      21.548  34.053  52.046  0.00  0.00     0.104 H 
ATOM    113  H   BDP d 301      22.183  36.012  50.655  0.00  0.00     0.091 H 
ATOM    114  H   BDP d 301      23.908  34.748  51.602  0.00  0.00     0.133 H 
ATOM    115  H   BDP d 301      25.335  32.769  49.990  0.00  0.00     0.212 HD
ATOM    116  H   BDP d 301      21.172  33.623  49.097  0.00  0.00     0.092 H 
ATOM    117  H   BDP d 301      23.603  34.210  48.691  0.00  0.00     0.094 H 
ATOM    118  H   BDP d 301      24.565  36.416  50.199  0.00  0.00     0.210 HD
ATOM    119  H   BDP d 301      21.838  35.575  47.857  0.00  0.00     0.210 HD
ATOM    120  OSC ASG d 304       4.529  32.028  51.006  0.00  0.00    -0.572 OA
ATOM    121  O3  ASG d 304       6.389  32.045  46.883  0.00  0.00    -0.348 OA
ATOM    122  C5  ASG d 304       7.451  35.085  48.843  0.00  0.00     0.090 C 
ATOM    123  C6  ASG d 304       6.862  35.950  49.930  0.00  0.00     0.043 C 
ATOM    124  O4  ASG d 304       6.206  33.118  49.539  0.00  0.00    -0.246 OA
ATOM    125  C7  ASG d 304      10.046  30.678  47.116  0.00  0.00     0.214 C 
ATOM    126  C8  ASG d 304      10.657  30.043  45.887  0.00  0.00    -0.003 C 
ATOM    127  S   ASG d 304       4.664  32.984  49.926  0.00  0.00     0.252 S 
ATOM    128  OSB ASG d 304       4.147  34.273  50.350  0.00  0.00    -0.572 OA
ATOM    129  N   ASG d 304       9.231  31.759  46.812  0.00  0.00    -0.349 N 
ATOM    130  C4  ASG d 304       6.508  33.942  48.401  0.00  0.00     0.114 C 
ATOM    131  C3  ASG d 304       7.220  33.111  47.313  0.00  0.00     0.094 C 
ATOM    132  C1  ASG d 304       9.387  33.720  48.334  0.00  0.00     0.154 C 
ATOM    133  O7  ASG d 304      10.256  30.272  48.247  0.00  0.00    -0.274 OA
ATOM    134  O6  ASG d 304       7.539  37.206  49.999  0.00  0.00    -0.398 OA
ATOM    135  O5  ASG d 304       8.710  34.534  49.336  0.00  0.00    -0.349 OA
ATOM    136  C2  ASG d 304       8.516  32.547  47.871  0.00  0.00     0.087 C 
ATOM    137  OSA ASG d 304       3.909  32.529  48.770  0.00  0.00    -0.572 OA
ATOM    138  H   ASG d 304       7.607  35.694  47.978  0.00  0.00     0.090 H 
ATOM    139  H   ASG d 304       6.957  35.448  50.869  0.00  0.00     0.078 H 
ATOM    140  H   ASG d 304       5.831  36.127  49.707  0.00  0.00     0.078 H 
ATOM    141  H   ASG d 304      10.329  30.567  45.014  0.00  0.00     0.040 H 
ATOM    142  H   ASG d 304      10.351  29.020  45.825  0.00  0.00     0.040 H 
ATOM    143  H   ASG d 304      11.724  30.093  45.953  0.00  0.00     0.040 H 
ATOM    144  H   ASG d 304       9.119  32.019  45.869  0.00  0.00     0.163 HD
ATOM    145  H   ASG d 304       5.596  34.336  48.005  0.00  0.00     0.093 H 
ATOM    146  H   ASG d 304       7.430  33.745  46.478  0.00  0.00     0.091 H 
ATOM    147  H   ASG d 304       9.589  34.332  47.479  0.00  0.00     0.132 H 
ATOM    148  H   ASG d 304       8.477  37.057  50.202  0.00  0.00     0.209 HD
ATOM    149  H   ASG d 304       8.312  31.894  48.694  0.00  0.00     0.084 H 
ENDROOT
TORSDOF 38
ENDMDL
MODEL 60
REMARK VINA RESULT:      -5.0      4.614     15.631
REMARK  0 active torsions:
REMARK  status: ('A' for Active; 'I' for Inactive)
REMARK       I    between atoms: C6_2  and  C5_74 
REMARK       I    between atoms: C1_3  and  O4_24 
REMARK       I    between atoms: O6_4  and  C6_26 
REMARK       I    between atoms: C5_5  and  C6_12 
REMARK       I    between atoms: C4_6  and  O4_22 
REMARK       I    between atoms: C6_8  and  C5_90 
REMARK       I    between atoms: C6_8  and  O6_83 
REMARK       I    between atoms: O3_11  and  C3_60 
REMARK       I    between atoms: O3_11  and  C1_29 
REMARK       I    between atoms: C5_13  and  C6_18 
REMARK       I    between atoms: O4_14  and  C4_88 
REMARK       I    between atoms: O4_14  and  S_15 
REMARK       I    between atoms: C6_16  and  C5_28 
REMARK       I    between atoms: S_17  and  O4_22 
REMARK       I    between atoms: C6_18  and  O6_66 
REMARK       I    between atoms: O4_20  and  C4_46 
REMARK       I    between atoms: O4_20  and  C1_61 
REMARK       I    between atoms: O4_21  and  C4_54 
REMARK       I    between atoms: O4_21  and  S_40 
REMARK       I    between atoms: O4_24  and  C4_35 
REMARK       I    between atoms: O3_25  and  C3_48 
REMARK       I    between atoms: C6_26  and  C5_50 
REMARK       I    between atoms: C2_27  and  O2_55 
REMARK       I    between atoms: O3_31  and  C3_37 
REMARK       I    between atoms: C2_32  and  N_72 
REMARK       I    between atoms: C7_33  and  C8_39 
REMARK       I    between atoms: C7_33  and  N_52 
REMARK       I    between atoms: C1_34  and  O4_86 
REMARK       I    between atoms: C3_36  and  O3_87 
REMARK       I    between atoms: C2_47  and  O2_85 
REMARK       I    between atoms: N_52  and  C2_71 
REMARK       I    between atoms: C3_53  and  O3_81 
REMARK       I    between atoms: C1_56  and  O3_81 
REMARK       I    between atoms: C7_57  and  C8_64 
REMARK       I    between atoms: C7_57  and  N_63 
REMARK       I    between atoms: C8_58  and  C7_73 
REMARK       I    between atoms: C1_59  and  O1_68 
REMARK       I    between atoms: N_63  and  C2_67 
REMARK       I    between atoms: C4_69  and  O4_86 
REMARK       I    between atoms: N_72  and  C7_73 
REMARK       I    between atoms: C2_77  and  O2_82 
ROOT
ATOM      1  OSB ASG d 302       8.910  40.375  51.875  0.00  0.00    -0.572 OA
ATOM      2  O6  ASG d 302       8.704  38.190  55.682  0.00  0.00    -0.398 OA
ATOM      3  O4  ASG d 302       7.462  38.381  51.538  0.00  0.00    -0.246 OA
ATOM      4  S   ASG d 302       8.323  39.540  50.845  0.00  0.00     0.252 S 
ATOM      5  C6  ASG d 302       8.549  38.429  54.286  0.00  0.00     0.043 C 
ATOM      6  C2  ASG d 302       6.040  35.961  51.838  0.00  0.00     0.087 C 
ATOM      7  C1  ASG d 302       5.912  36.004  53.353  0.00  0.00     0.154 C 
ATOM      8  O5  ASG d 302       6.565  37.165  53.916  0.00  0.00    -0.349 OA
ATOM      9  C5  ASG d 302       7.976  37.216  53.601  0.00  0.00     0.090 C 
ATOM     10  O7  ASG d 302       4.020  35.818  49.791  0.00  0.00    -0.274 OA
ATOM     11  C3  ASG d 302       7.520  35.956  51.501  0.00  0.00     0.094 C 
ATOM     12  C8  ASG d 302       3.901  33.423  49.915  0.00  0.00    -0.003 C 
ATOM     13  OSA ASG d 302       9.375  38.963  50.029  0.00  0.00    -0.572 OA
ATOM     14  N   ASG d 302       5.386  34.727  51.307  0.00  0.00    -0.349 N 
ATOM     15  C7  ASG d 302       4.419  34.787  50.308  0.00  0.00     0.214 C 
ATOM     16  OSC ASG d 302       7.454  40.342  50.014  0.00  0.00    -0.572 OA
ATOM     17  O3  ASG d 302       7.635  35.977  50.124  0.00  0.00    -0.348 OA
ATOM     18  C4  ASG d 302       8.157  37.236  52.069  0.00  0.00     0.114 C 
ATOM     19  H   ASG d 302       9.073  38.979  56.107  0.00  0.00     0.209 HD
ATOM     20  H   ASG d 302       9.504  38.655  53.860  0.00  0.00     0.078 H 
ATOM     21  H   ASG d 302       7.879  39.252  54.150  0.00  0.00     0.078 H 
ATOM     22  H   ASG d 302       5.560  36.808  51.394  0.00  0.00     0.084 H 
ATOM     23  H   ASG d 302       6.379  35.123  53.739  0.00  0.00     0.132 H 
ATOM     24  H   ASG d 302       8.502  36.353  53.952  0.00  0.00     0.090 H 
ATOM     25  H   ASG d 302       8.005  35.095  51.913  0.00  0.00     0.091 H 
ATOM     26  H   ASG d 302       3.164  33.529  49.147  0.00  0.00     0.040 H 
ATOM     27  H   ASG d 302       3.462  32.948  50.768  0.00  0.00     0.040 H 
ATOM     28  H   ASG d 302       4.710  32.825  49.551  0.00  0.00     0.040 H 
ATOM     29  H   ASG d 302       5.646  33.851  51.673  0.00  0.00     0.163 HD
ATOM     30  H   ASG d 302       9.194  37.288  51.808  0.00  0.00     0.093 H 
ATOM     31  C6  BDP d 303      11.941  34.076  50.135  0.00  0.00     0.206 C 
ATOM     32  O4  BDP d 303      11.271  32.907  47.488  0.00  0.00    -0.348 OA
ATOM     33  O3  BDP d 303       9.011  33.862  46.074  0.00  0.00    -0.390 OA
ATOM     34  C3  BDP d 303       9.070  33.808  47.508  0.00  0.00     0.092 C 
ATOM     35  O6B BDP d 303      12.623  35.018  49.683  0.00  0.00    -0.646 OA
ATOM     36  C4  BDP d 303      10.521  33.961  47.986  0.00  0.00     0.103 C 
ATOM     37  C2  BDP d 303       8.261  34.957  48.079  0.00  0.00     0.110 C 
ATOM     38  O6A BDP d 303      12.230  33.230  51.012  0.00  0.00    -0.646 OA
ATOM     39  C1  BDP d 303       8.341  34.911  49.596  0.00  0.00     0.160 C 
ATOM     40  C5  BDP d 303      10.545  33.917  49.538  0.00  0.00     0.152 C 
ATOM     41  O5  BDP d 303       9.716  34.994  50.058  0.00  0.00    -0.340 OA
ATOM     42  O2  BDP d 303       6.890  34.847  47.684  0.00  0.00    -0.388 OA
ATOM     43  H   BDP d 303       8.091  33.764  45.784  0.00  0.00     0.210 HD
ATOM     44  H   BDP d 303       8.679  32.867  47.835  0.00  0.00     0.091 H 
ATOM     45  H   BDP d 303      10.927  34.890  47.643  0.00  0.00     0.092 H 
ATOM     46  H   BDP d 303       8.659  35.880  47.710  0.00  0.00     0.094 H 
ATOM     47  H   BDP d 303       7.925  33.980  49.920  0.00  0.00     0.133 H 
ATOM     48  H   BDP d 303      10.180  32.950  49.816  0.00  0.00     0.104 H 
ATOM     49  H   BDP d 303       6.524  34.012  48.016  0.00  0.00     0.210 HD
ATOM     50  C1  ASG d 306      20.294  33.776  49.060  0.00  0.00     0.151 C 
ATOM     51  C4  ASG d 306      22.333  35.875  49.249  0.00  0.00     0.089 C 
ATOM     52  C6  ASG d 306      20.715  37.272  47.871  0.00  0.00     0.043 C 
ATOM     53  S   ASG d 306      24.399  36.304  47.770  0.00  0.00     0.252 S 
ATOM     54  O4  ASG d 306      23.053  35.517  48.068  0.00  0.00    -0.249 OA
ATOM     55  OSB ASG d 306      24.991  35.782  46.552  0.00  0.00    -0.572 OA
ATOM     56  OSA ASG d 306      24.100  37.714  47.596  0.00  0.00    -0.572 OA
ATOM     57  C3  ASG d 306      22.419  34.676  50.260  0.00  0.00    -0.014 C 
ATOM     58  C7  ASG d 306      21.999  30.965  49.872  0.00  0.00     0.214 C 
ATOM     59  N   ASG d 306      21.638  32.222  50.364  0.00  0.00    -0.352 N 
ATOM     60  C8  ASG d 306      21.863  29.876  50.906  0.00  0.00    -0.003 C 
ATOM     61  C2  ASG d 306      21.688  33.440  49.495  0.00  0.00     0.062 C 
ATOM     62  O5  ASG d 306      20.287  34.947  48.210  0.00  0.00    -0.349 OA
ATOM     63  O6  ASG d 306      19.361  37.417  47.445  0.00  0.00    -0.398 OA
ATOM     64  O7  ASG d 306      22.380  30.749  48.725  0.00  0.00    -0.274 OA
ATOM     65  OSC ASG d 306      25.318  36.135  48.874  0.00  0.00    -0.572 OA
ATOM     66  C5  ASG d 306      20.848  36.131  48.855  0.00  0.00     0.088 C 
ATOM     67  H   ASG d 306      19.696  33.996  49.919  0.00  0.00     0.132 H 
ATOM     68  H   ASG d 306      22.741  36.755  49.700  0.00  0.00     0.089 H 
ATOM     69  H   ASG d 306      21.332  37.074  47.018  0.00  0.00     0.078 H 
ATOM     70  H   ASG d 306      21.023  38.177  48.350  0.00  0.00     0.078 H 
ATOM     71  H   ASG d 306      21.908  34.911  51.169  0.00  0.00     0.040 H 
ATOM     72  H   ASG d 306      23.428  34.445  50.529  0.00  0.00     0.040 H 
ATOM     73  H   ASG d 306      21.345  32.308  51.300  0.00  0.00     0.163 HD
ATOM     74  H   ASG d 306      21.517  30.299  51.826  0.00  0.00     0.040 H 
ATOM     75  H   ASG d 306      22.814  29.411  51.062  0.00  0.00     0.040 H 
ATOM     76  H   ASG d 306      21.161  29.145  50.563  0.00  0.00     0.040 H 
ATOM     77  H   ASG d 306      22.277  33.244  48.624  0.00  0.00     0.080 H 
ATOM     78  H   ASG d 306      19.070  36.601  47.008  0.00  0.00     0.209 HD
ATOM     79  H   ASG d 306      20.330  36.369  49.761  0.00  0.00     0.090 H 
ATOM     80  C5  BDP d 305      17.717  31.415  48.348  0.00  0.00     0.152 C 
ATOM     81  O6B BDP d 305      16.589  32.546  50.069  0.00  0.00    -0.646 OA
ATOM     82  C6  BDP d 305      17.439  31.670  49.823  0.00  0.00     0.206 C 
ATOM     83  O4  BDP d 305      19.772  32.683  48.376  0.00  0.00    -0.348 OA
ATOM     84  O3  BDP d 305      19.621  33.162  45.578  0.00  0.00    -0.390 OA
ATOM     85  C2  BDP d 305      17.459  32.142  45.544  0.00  0.00     0.110 C 
ATOM     86  C1  BDP d 305      16.568  31.090  46.221  0.00  0.00     0.160 C 
ATOM     87  C4  BDP d 305      18.582  32.519  47.696  0.00  0.00     0.103 C 
ATOM     88  O6A BDP d 305      18.111  30.960  50.610  0.00  0.00    -0.646 OA
ATOM     89  C3  BDP d 305      18.819  32.165  46.215  0.00  0.00     0.092 C 
ATOM     90  O2  BDP d 305      17.572  31.814  44.157  0.00  0.00    -0.388 OA
ATOM     91  O5  BDP d 305      16.435  31.359  47.650  0.00  0.00    -0.340 OA
ATOM     92  H   BDP d 305      18.263  30.498  48.271  0.00  0.00     0.104 H 
ATOM     93  H   BDP d 305      19.758  32.921  44.648  0.00  0.00     0.210 HD
ATOM     94  H   BDP d 305      17.030  33.117  45.639  0.00  0.00     0.094 H 
ATOM     95  H   BDP d 305      17.029  30.134  46.087  0.00  0.00     0.133 H 
ATOM     96  H   BDP d 305      18.063  33.453  47.749  0.00  0.00     0.092 H 
ATOM     97  H   BDP d 305      19.323  31.226  46.140  0.00  0.00     0.091 H 
ATOM     98  H   BDP d 305      17.961  30.930  44.064  0.00  0.00     0.210 HD
ATOM     99  O6B BDP d 301       3.562  32.769  54.906  0.00  0.00    -0.646 OA
ATOM    100  C6  BDP d 301       3.073  33.623  54.133  0.00  0.00     0.206 C 
ATOM    101  O6A BDP d 301       2.746  33.520  52.930  0.00  0.00    -0.646 OA
ATOM    102  O5  BDP d 301       2.126  34.826  55.992  0.00  0.00    -0.340 OA
ATOM    103  C5  BDP d 301       2.837  34.997  54.745  0.00  0.00     0.152 C 
ATOM    104  C3  BDP d 301       3.760  37.150  55.636  0.00  0.00     0.092 C 
ATOM    105  C1  BDP d 301       1.831  36.090  56.662  0.00  0.00     0.156 C 
ATOM    106  O1  BDP d 301       1.054  35.749  57.910  0.00  0.00    -0.368 OA
ATOM    107  C4  BDP d 301       4.119  35.799  54.968  0.00  0.00     0.103 C 
ATOM    108  C2  BDP d 301       3.074  36.875  56.966  0.00  0.00     0.110 C 
ATOM    109  O2  BDP d 301       2.696  38.086  57.615  0.00  0.00    -0.388 OA
ATOM    110  O4  BDP d 301       4.589  36.058  53.695  0.00  0.00    -0.348 OA
ATOM    111  O3  BDP d 301       4.949  37.907  55.875  0.00  0.00    -0.390 OA
ATOM    112  H   BDP d 301       2.260  35.568  54.048  0.00  0.00     0.104 H 
ATOM    113  H   BDP d 301       3.112  37.704  54.990  0.00  0.00     0.091 H 
ATOM    114  H   BDP d 301       1.255  36.727  56.023  0.00  0.00     0.133 H 
ATOM    115  H   BDP d 301       1.589  35.172  58.476  0.00  0.00     0.212 HD
ATOM    116  H   BDP d 301       4.825  35.282  55.583  0.00  0.00     0.092 H 
ATOM    117  H   BDP d 301       3.742  36.346  57.612  0.00  0.00     0.094 H 
ATOM    118  H   BDP d 301       2.088  38.583  57.045  0.00  0.00     0.210 HD
ATOM    119  H   BDP d 301       5.538  37.406  56.461  0.00  0.00     0.210 HD
ATOM    120  OSC ASG d 304      13.076  30.434  41.741  0.00  0.00    -0.572 OA
ATOM    121  O3  ASG d 304      15.284  31.090  45.634  0.00  0.00    -0.348 OA
ATOM    122  C5  ASG d 304      13.254  34.132  44.716  0.00  0.00     0.090 C 
ATOM    123  C6  ASG d 304      12.781  34.792  43.444  0.00  0.00     0.043 C 
ATOM    124  O4  ASG d 304      13.322  31.922  43.711  0.00  0.00    -0.246 OA
ATOM    125  C7  ASG d 304      12.848  30.428  48.621  0.00  0.00     0.214 C 
ATOM    126  C8  ASG d 304      13.436  30.008  49.950  0.00  0.00    -0.003 C 
ATOM    127  S   ASG d 304      13.918  31.471  42.301  0.00  0.00     0.252 S 
ATOM    128  OSB ASG d 304      13.959  32.606  41.396  0.00  0.00    -0.572 OA
ATOM    129  N   ASG d 304      13.638  31.354  47.955  0.00  0.00    -0.349 N 
ATOM    130  C4  ASG d 304      14.103  32.865  44.462  0.00  0.00     0.114 C 
ATOM    131  C3  ASG d 304      14.506  32.262  45.823  0.00  0.00     0.094 C 
ATOM    132  C1  ASG d 304      12.436  33.198  46.797  0.00  0.00     0.154 C 
ATOM    133  O7  ASG d 304      11.792  29.992  48.195  0.00  0.00    -0.274 OA
ATOM    134  O6  ASG d 304      12.396  36.145  43.690  0.00  0.00    -0.398 OA
ATOM    135  O5  ASG d 304      12.081  33.796  45.516  0.00  0.00    -0.349 OA
ATOM    136  C2  ASG d 304      13.257  31.916  46.616  0.00  0.00     0.087 C 
ATOM    137  OSA ASG d 304      15.268  30.962  42.483  0.00  0.00    -0.572 OA
ATOM    138  H   ASG d 304      13.892  34.818  45.232  0.00  0.00     0.090 H 
ATOM    139  H   ASG d 304      11.942  34.253  43.060  0.00  0.00     0.078 H 
ATOM    140  H   ASG d 304      13.583  34.786  42.736  0.00  0.00     0.078 H 
ATOM    141  H   ASG d 304      14.362  30.520  50.109  0.00  0.00     0.040 H 
ATOM    142  H   ASG d 304      13.608  28.952  49.946  0.00  0.00     0.040 H 
ATOM    143  H   ASG d 304      12.752  30.254  50.736  0.00  0.00     0.040 H 
ATOM    144  H   ASG d 304      14.476  31.652  48.375  0.00  0.00     0.163 HD
ATOM    145  H   ASG d 304      14.985  33.106  43.905  0.00  0.00     0.093 H 
ATOM    146  H   ASG d 304      15.089  32.981  46.360  0.00  0.00     0.091 H 
ATOM    147  H   ASG d 304      13.038  33.894  47.342  0.00  0.00     0.132 H 
ATOM    148  H   ASG d 304      11.669  36.163  44.333  0.00  0.00     0.209 HD
ATOM    149  H   ASG d 304      12.680  31.181  46.095  0.00  0.00     0.084 H 
ENDROOT
TORSDOF 38
ENDMDL
MODEL 61
REMARK VINA RESULT:      -4.9      3.082      3.605
REMARK  0 active torsions:
REMARK  status: ('A' for Active; 'I' for Inactive)
REMARK       I    between atoms: C6_2  and  C5_74 
REMARK       I    between atoms: C1_3  and  O4_24 
REMARK       I    between atoms: O6_4  and  C6_26 
REMARK       I    between atoms: C5_5  and  C6_12 
REMARK       I    between atoms: C4_6  and  O4_22 
REMARK       I    between atoms: C6_8  and  C5_90 
REMARK       I    between atoms: C6_8  and  O6_83 
REMARK       I    between atoms: O3_11  and  C3_60 
REMARK       I    between atoms: O3_11  and  C1_29 
REMARK       I    between atoms: C5_13  and  C6_18 
REMARK       I    between atoms: O4_14  and  C4_88 
REMARK       I    between atoms: O4_14  and  S_15 
REMARK       I    between atoms: C6_16  and  C5_28 
REMARK       I    between atoms: S_17  and  O4_22 
REMARK       I    between atoms: C6_18  and  O6_66 
REMARK       I    between atoms: O4_20  and  C4_46 
REMARK       I    between atoms: O4_20  and  C1_61 
REMARK       I    between atoms: O4_21  and  C4_54 
REMARK       I    between atoms: O4_21  and  S_40 
REMARK       I    between atoms: O4_24  and  C4_35 
REMARK       I    between atoms: O3_25  and  C3_48 
REMARK       I    between atoms: C6_26  and  C5_50 
REMARK       I    between atoms: C2_27  and  O2_55 
REMARK       I    between atoms: O3_31  and  C3_37 
REMARK       I    between atoms: C2_32  and  N_72 
REMARK       I    between atoms: C7_33  and  C8_39 
REMARK       I    between atoms: C7_33  and  N_52 
REMARK       I    between atoms: C1_34  and  O4_86 
REMARK       I    between atoms: C3_36  and  O3_87 
REMARK       I    between atoms: C2_47  and  O2_85 
REMARK       I    between atoms: N_52  and  C2_71 
REMARK       I    between atoms: C3_53  and  O3_81 
REMARK       I    between atoms: C1_56  and  O3_81 
REMARK       I    between atoms: C7_57  and  C8_64 
REMARK       I    between atoms: C7_57  and  N_63 
REMARK       I    between atoms: C8_58  and  C7_73 
REMARK       I    between atoms: C1_59  and  O1_68 
REMARK       I    between atoms: N_63  and  C2_67 
REMARK       I    between atoms: C4_69  and  O4_86 
REMARK       I    between atoms: N_72  and  C7_73 
REMARK       I    between atoms: C2_77  and  O2_82 
ROOT
ATOM      1  OSB ASG d 302      14.160  39.436  42.508  0.00  0.00    -0.572 OA
ATOM      2  O6  ASG d 302      13.164  35.850  40.171  0.00  0.00    -0.398 OA
ATOM      3  O4  ASG d 302      16.042  37.827  42.732  0.00  0.00    -0.246 OA
ATOM      4  S   ASG d 302      15.330  39.139  43.312  0.00  0.00     0.252 S 
ATOM      5  C6  ASG d 302      13.864  36.665  41.107  0.00  0.00     0.043 C 
ATOM      6  C2  ASG d 302      17.722  35.561  42.617  0.00  0.00     0.087 C 
ATOM      7  C1  ASG d 302      17.143  34.962  41.344  0.00  0.00     0.154 C 
ATOM      8  O5  ASG d 302      16.045  35.750  40.829  0.00  0.00    -0.349 OA
ATOM      9  C5  ASG d 302      14.961  35.879  41.778  0.00  0.00     0.090 C 
ATOM     10  O7  ASG d 302      20.412  36.373  43.248  0.00  0.00    -0.274 OA
ATOM     11  C3  ASG d 302      16.602  35.647  43.637  0.00  0.00     0.094 C 
ATOM     12  C8  ASG d 302      21.044  34.158  43.926  0.00  0.00    -0.003 C 
ATOM     13  OSA ASG d 302      14.932  38.926  44.691  0.00  0.00    -0.572 OA
ATOM     14  N   ASG d 302      18.824  34.694  43.132  0.00  0.00    -0.349 N 
ATOM     15  C7  ASG d 302      20.089  35.206  43.404  0.00  0.00     0.214 C 
ATOM     16  OSC ASG d 302      16.253  40.249  43.243  0.00  0.00    -0.572 OA
ATOM     17  O3  ASG d 302      17.115  36.246  44.771  0.00  0.00    -0.348 OA
ATOM     18  C4  ASG d 302      15.487  36.541  43.068  0.00  0.00     0.114 C 
ATOM     19  H   ASG d 302      12.463  36.371  39.750  0.00  0.00     0.209 HD
ATOM     20  H   ASG d 302      13.179  37.016  41.849  0.00  0.00     0.078 H 
ATOM     21  H   ASG d 302      14.301  37.491  40.586  0.00  0.00     0.078 H 
ATOM     22  H   ASG d 302      18.127  36.533  42.427  0.00  0.00     0.084 H 
ATOM     23  H   ASG d 302      16.784  33.984  41.586  0.00  0.00     0.132 H 
ATOM     24  H   ASG d 302      14.562  34.930  42.070  0.00  0.00     0.090 H 
ATOM     25  H   ASG d 302      16.211  34.676  43.861  0.00  0.00     0.091 H 
ATOM     26  H   ASG d 302      21.996  34.606  44.117  0.00  0.00     0.040 H 
ATOM     27  H   ASG d 302      21.155  33.382  43.197  0.00  0.00     0.040 H 
ATOM     28  H   ASG d 302      20.657  33.742  44.833  0.00  0.00     0.040 H 
ATOM     29  H   ASG d 302      18.651  33.736  43.282  0.00  0.00     0.163 HD
ATOM     30  H   ASG d 302      14.700  36.661  43.783  0.00  0.00     0.093 H 
ATOM     31  C6  BDP d 303      13.872  34.367  47.619  0.00  0.00     0.206 C 
ATOM     32  O4  BDP d 303      15.921  34.457  49.769  0.00  0.00    -0.348 OA
ATOM     33  O3  BDP d 303      18.264  36.003  49.397  0.00  0.00    -0.390 OA
ATOM     34  C3  BDP d 303      17.584  35.343  48.317  0.00  0.00     0.092 C 
ATOM     35  O6B BDP d 303      13.258  35.387  47.993  0.00  0.00    -0.646 OA
ATOM     36  C4  BDP d 303      16.085  35.227  48.626  0.00  0.00     0.103 C 
ATOM     37  C2  BDP d 303      17.742  36.169  47.056  0.00  0.00     0.110 C 
ATOM     38  O6A BDP d 303      13.437  33.219  47.372  0.00  0.00    -0.646 OA
ATOM     39  C1  BDP d 303      17.005  35.480  45.919  0.00  0.00     0.160 C 
ATOM     40  C5  BDP d 303      15.379  34.527  47.433  0.00  0.00     0.152 C 
ATOM     41  O5  BDP d 303      15.596  35.310  46.226  0.00  0.00    -0.340 OA
ATOM     42  O2  BDP d 303      19.125  36.286  46.706  0.00  0.00    -0.388 OA
ATOM     43  H   BDP d 303      19.209  36.070  49.190  0.00  0.00     0.210 HD
ATOM     44  H   BDP d 303      18.003  34.367  48.189  0.00  0.00     0.091 H 
ATOM     45  H   BDP d 303      15.662  36.198  48.779  0.00  0.00     0.092 H 
ATOM     46  H   BDP d 303      17.341  37.146  47.226  0.00  0.00     0.094 H 
ATOM     47  H   BDP d 303      17.445  34.516  45.777  0.00  0.00     0.133 H 
ATOM     48  H   BDP d 303      15.804  33.547  47.367  0.00  0.00     0.104 H 
ATOM     49  H   BDP d 303      19.495  35.403  46.550  0.00  0.00     0.210 HD
ATOM     50  C1  ASG d 306       7.244  34.253  52.823  0.00  0.00     0.151 C 
ATOM     51  C4  ASG d 306       4.894  35.999  52.980  0.00  0.00     0.089 C 
ATOM     52  C6  ASG d 306       6.562  37.905  52.753  0.00  0.00     0.043 C 
ATOM     53  S   ASG d 306       3.675  36.941  55.046  0.00  0.00     0.252 S 
ATOM     54  O4  ASG d 306       4.891  36.150  54.401  0.00  0.00    -0.249 OA
ATOM     55  OSB ASG d 306       3.840  36.964  56.488  0.00  0.00    -0.572 OA
ATOM     56  OSA ASG d 306       3.666  38.301  54.539  0.00  0.00    -0.572 OA
ATOM     57  C3  ASG d 306       4.660  34.482  52.648  0.00  0.00    -0.014 C 
ATOM     58  C7  ASG d 306       6.101  31.304  54.034  0.00  0.00     0.214 C 
ATOM     59  N   ASG d 306       5.884  32.245  53.024  0.00  0.00    -0.352 N 
ATOM     60  C8  ASG d 306       6.021  29.885  53.531  0.00  0.00    -0.003 C 
ATOM     61  C2  ASG d 306       5.933  33.714  53.308  0.00  0.00     0.062 C 
ATOM     62  O5  ASG d 306       7.346  35.674  53.080  0.00  0.00    -0.349 OA
ATOM     63  O6  ASG d 306       7.881  38.266  52.348  0.00  0.00    -0.398 OA
ATOM     64  O7  ASG d 306       6.341  31.582  55.206  0.00  0.00    -0.274 OA
ATOM     65  OSC ASG d 306       2.432  36.287  54.705  0.00  0.00    -0.572 OA
ATOM     66  C5  ASG d 306       6.284  36.451  52.445  0.00  0.00     0.088 C 
ATOM     67  H   ASG d 306       7.320  34.108  51.766  0.00  0.00     0.132 H 
ATOM     68  H   ASG d 306       4.125  36.589  52.526  0.00  0.00     0.089 H 
ATOM     69  H   ASG d 306       6.462  38.066  53.807  0.00  0.00     0.078 H 
ATOM     70  H   ASG d 306       5.861  38.510  52.217  0.00  0.00     0.078 H 
ATOM     71  H   ASG d 306       4.634  34.327  51.589  0.00  0.00     0.040 H 
ATOM     72  H   ASG d 306       3.728  34.122  53.030  0.00  0.00     0.040 H 
ATOM     73  H   ASG d 306       5.695  31.936  52.108  0.00  0.00     0.163 HD
ATOM     74  H   ASG d 306       5.803  29.889  52.484  0.00  0.00     0.040 H 
ATOM     75  H   ASG d 306       5.247  29.364  54.055  0.00  0.00     0.040 H 
ATOM     76  H   ASG d 306       6.957  29.394  53.699  0.00  0.00     0.040 H 
ATOM     77  H   ASG d 306       5.865  33.886  54.362  0.00  0.00     0.080 H 
ATOM     78  H   ASG d 306       8.527  37.724  52.828  0.00  0.00     0.209 HD
ATOM     79  H   ASG d 306       6.266  36.300  51.385  0.00  0.00     0.090 H 
ATOM     80  C5  BDP d 305      10.357  32.512  52.895  0.00  0.00     0.152 C 
ATOM     81  O6B BDP d 305      10.279  32.844  50.572  0.00  0.00    -0.646 OA
ATOM     82  C6  BDP d 305       9.873  32.126  51.504  0.00  0.00     0.206 C 
ATOM     83  O4  BDP d 305       8.267  33.573  53.477  0.00  0.00    -0.348 OA
ATOM     84  O3  BDP d 305       9.534  35.200  55.434  0.00  0.00    -0.390 OA
ATOM     85  C2  BDP d 305      11.657  34.368  54.716  0.00  0.00     0.110 C 
ATOM     86  C1  BDP d 305      12.378  33.161  54.096  0.00  0.00     0.160 C 
ATOM     87  C4  BDP d 305       9.636  33.756  53.463  0.00  0.00     0.103 C 
ATOM     88  O6A BDP d 305       9.115  31.125  51.475  0.00  0.00    -0.646 OA
ATOM     89  C3  BDP d 305      10.182  34.056  54.872  0.00  0.00     0.092 C 
ATOM     90  O2  BDP d 305      12.262  34.657  55.979  0.00  0.00    -0.388 OA
ATOM     91  O5  BDP d 305      11.786  32.803  52.811  0.00  0.00    -0.340 OA
ATOM     92  H   BDP d 305      10.146  31.695  53.553  0.00  0.00     0.104 H 
ATOM     93  H   BDP d 305       9.892  35.371  56.319  0.00  0.00     0.210 HD
ATOM     94  H   BDP d 305      11.745  35.225  54.082  0.00  0.00     0.094 H 
ATOM     95  H   BDP d 305      12.275  32.337  54.770  0.00  0.00     0.133 H 
ATOM     96  H   BDP d 305       9.829  34.598  52.831  0.00  0.00     0.092 H 
ATOM     97  H   BDP d 305      10.011  33.220  55.516  0.00  0.00     0.091 H 
ATOM     98  H   BDP d 305      12.185  33.883  56.558  0.00  0.00     0.210 HD
ATOM     99  O6B BDP d 301      19.258  31.460  40.055  0.00  0.00    -0.646 OA
ATOM    100  C6  BDP d 301      19.816  32.578  40.117  0.00  0.00     0.206 C 
ATOM    101  O6A BDP d 301      20.661  33.007  40.932  0.00  0.00    -0.646 OA
ATOM    102  O5  BDP d 301      19.503  32.911  37.751  0.00  0.00    -0.340 OA
ATOM    103  C5  BDP d 301      19.409  33.570  39.034  0.00  0.00     0.152 C 
ATOM    104  C3  BDP d 301      17.690  35.106  38.053  0.00  0.00     0.092 C 
ATOM    105  C1  BDP d 301      19.148  33.781  36.633  0.00  0.00     0.156 C 
ATOM    106  O1  BDP d 301      19.340  32.970  35.375  0.00  0.00    -0.368 OA
ATOM    107  C4  BDP d 301      18.011  34.154  39.232  0.00  0.00     0.103 C 
ATOM    108  C2  BDP d 301      17.751  34.317  36.753  0.00  0.00     0.110 C 
ATOM    109  O2  BDP d 301      17.489  35.151  35.627  0.00  0.00    -0.388 OA
ATOM    110  O4  BDP d 301      18.113  34.912  40.383  0.00  0.00    -0.348 OA
ATOM    111  O3  BDP d 301      16.376  35.647  38.206  0.00  0.00    -0.390 OA
ATOM    112  H   BDP d 301      20.078  34.402  39.090  0.00  0.00     0.104 H 
ATOM    113  H   BDP d 301      18.401  35.905  38.038  0.00  0.00     0.091 H 
ATOM    114  H   BDP d 301      19.773  34.649  36.620  0.00  0.00     0.133 H 
ATOM    115  H   BDP d 301      18.767  32.188  35.403  0.00  0.00     0.212 HD
ATOM    116  H   BDP d 301      17.254  33.400  39.289  0.00  0.00     0.092 H 
ATOM    117  H   BDP d 301      17.016  33.540  36.770  0.00  0.00     0.094 H 
ATOM    118  H   BDP d 301      18.146  35.864  35.593  0.00  0.00     0.210 HD
ATOM    119  H   BDP d 301      15.728  34.924  38.220  0.00  0.00     0.210 HD
ATOM    120  OSC ASG d 304      17.549  34.595  56.072  0.00  0.00    -0.572 OA
ATOM    121  O3  ASG d 304      13.745  33.457  53.904  0.00  0.00    -0.348 OA
ATOM    122  C5  ASG d 304      15.158  36.671  52.531  0.00  0.00     0.090 C 
ATOM    123  C6  ASG d 304      15.973  37.825  53.061  0.00  0.00     0.043 C 
ATOM    124  O4  ASG d 304      16.091  35.096  54.128  0.00  0.00    -0.246 OA
ATOM    125  C7  ASG d 304      14.662  31.677  50.545  0.00  0.00     0.214 C 
ATOM    126  C8  ASG d 304      13.664  30.712  49.946  0.00  0.00    -0.003 C 
ATOM    127  S   ASG d 304      16.320  35.265  55.698  0.00  0.00     0.252 S 
ATOM    128  OSB ASG d 304      16.413  36.675  56.035  0.00  0.00    -0.572 OA
ATOM    129  N   ASG d 304      14.056  32.769  51.148  0.00  0.00    -0.349 N 
ATOM    130  C4  ASG d 304      14.852  35.602  53.606  0.00  0.00     0.114 C 
ATOM    131  C3  ASG d 304      14.042  34.464  52.951  0.00  0.00     0.094 C 
ATOM    132  C1  ASG d 304      15.157  34.972  50.804  0.00  0.00     0.154 C 
ATOM    133  O7  ASG d 304      15.868  31.501  50.495  0.00  0.00    -0.274 OA
ATOM    134  O6  ASG d 304      15.864  38.959  52.199  0.00  0.00    -0.398 OA
ATOM    135  O5  ASG d 304      15.891  36.070  51.422  0.00  0.00    -0.349 OA
ATOM    136  C2  ASG d 304      14.845  33.860  51.811  0.00  0.00     0.087 C 
ATOM    137  OSA ASG d 304      15.202  34.680  56.420  0.00  0.00    -0.572 OA
ATOM    138  H   ASG d 304      14.211  37.050  52.211  0.00  0.00     0.090 H 
ATOM    139  H   ASG d 304      16.999  37.531  53.124  0.00  0.00     0.078 H 
ATOM    140  H   ASG d 304      15.604  38.092  54.028  0.00  0.00     0.078 H 
ATOM    141  H   ASG d 304      12.671  31.075  50.113  0.00  0.00     0.040 H 
ATOM    142  H   ASG d 304      13.775  29.752  50.405  0.00  0.00     0.040 H 
ATOM    143  H   ASG d 304      13.839  30.626  48.893  0.00  0.00     0.040 H 
ATOM    144  H   ASG d 304      13.073  32.831  51.140  0.00  0.00     0.163 HD
ATOM    145  H   ASG d 304      14.284  36.025  54.409  0.00  0.00     0.093 H 
ATOM    146  H   ASG d 304      13.125  34.867  52.574  0.00  0.00     0.091 H 
ATOM    147  H   ASG d 304      14.225  35.349  50.438  0.00  0.00     0.132 H 
ATOM    148  H   ASG d 304      16.197  38.728  51.317  0.00  0.00     0.209 HD
ATOM    149  H   ASG d 304      15.754  33.436  52.184  0.00  0.00     0.084 H 
ENDROOT
TORSDOF 38
ENDMDL
MODEL 62
REMARK VINA RESULT:      -4.9      3.903     15.569
REMARK  0 active torsions:
REMARK  status: ('A' for Active; 'I' for Inactive)
REMARK       I    between atoms: C6_2  and  C5_74 
REMARK       I    between atoms: C1_3  and  O4_24 
REMARK       I    between atoms: O6_4  and  C6_26 
REMARK       I    between atoms: C5_5  and  C6_12 
REMARK       I    between atoms: C4_6  and  O4_22 
REMARK       I    between atoms: C6_8  and  C5_90 
REMARK       I    between atoms: C6_8  and  O6_83 
REMARK       I    between atoms: O3_11  and  C3_60 
REMARK       I    between atoms: O3_11  and  C1_29 
REMARK       I    between atoms: C5_13  and  C6_18 
REMARK       I    between atoms: O4_14  and  C4_88 
REMARK       I    between atoms: O4_14  and  S_15 
REMARK       I    between atoms: C6_16  and  C5_28 
REMARK       I    between atoms: S_17  and  O4_22 
REMARK       I    between atoms: C6_18  and  O6_66 
REMARK       I    between atoms: O4_20  and  C4_46 
REMARK       I    between atoms: O4_20  and  C1_61 
REMARK       I    between atoms: O4_21  and  C4_54 
REMARK       I    between atoms: O4_21  and  S_40 
REMARK       I    between atoms: O4_24  and  C4_35 
REMARK       I    between atoms: O3_25  and  C3_48 
REMARK       I    between atoms: C6_26  and  C5_50 
REMARK       I    between atoms: C2_27  and  O2_55 
REMARK       I    between atoms: O3_31  and  C3_37 
REMARK       I    between atoms: C2_32  and  N_72 
REMARK       I    between atoms: C7_33  and  C8_39 
REMARK       I    between atoms: C7_33  and  N_52 
REMARK       I    between atoms: C1_34  and  O4_86 
REMARK       I    between atoms: C3_36  and  O3_87 
REMARK       I    between atoms: C2_47  and  O2_85 
REMARK       I    between atoms: N_52  and  C2_71 
REMARK       I    between atoms: C3_53  and  O3_81 
REMARK       I    between atoms: C1_56  and  O3_81 
REMARK       I    between atoms: C7_57  and  C8_64 
REMARK       I    between atoms: C7_57  and  N_63 
REMARK       I    between atoms: C8_58  and  C7_73 
REMARK       I    between atoms: C1_59  and  O1_68 
REMARK       I    between atoms: N_63  and  C2_67 
REMARK       I    between atoms: C4_69  and  O4_86 
REMARK       I    between atoms: N_72  and  C7_73 
REMARK       I    between atoms: C2_77  and  O2_82 
ROOT
ATOM      1  OSB ASG d 302       3.707  34.207  50.138  0.00  0.00    -0.572 OA
ATOM      2  O6  ASG d 302       3.155  38.558  50.410  0.00  0.00    -0.398 OA
ATOM      3  O4  ASG d 302       4.209  34.899  52.473  0.00  0.00    -0.246 OA
ATOM      4  S   ASG d 302       4.347  33.757  51.359  0.00  0.00     0.252 S 
ATOM      5  C6  ASG d 302       3.565  37.251  50.802  0.00  0.00     0.043 C 
ATOM      6  C2  ASG d 302       4.693  36.358  54.842  0.00  0.00     0.087 C 
ATOM      7  C1  ASG d 302       3.873  37.587  54.477  0.00  0.00     0.154 C 
ATOM      8  O5  ASG d 302       3.291  37.474  53.158  0.00  0.00    -0.349 OA
ATOM      9  C5  ASG d 302       4.288  37.297  52.124  0.00  0.00     0.090 C 
ATOM     10  O7  ASG d 302       4.484  34.567  57.087  0.00  0.00    -0.274 OA
ATOM     11  C3  ASG d 302       5.777  36.199  53.791  0.00  0.00     0.094 C 
ATOM     12  C8  ASG d 302       5.848  35.970  58.479  0.00  0.00    -0.003 C 
ATOM     13  OSA ASG d 302       5.747  33.477  51.100  0.00  0.00    -0.572 OA
ATOM     14  N   ASG d 302       5.305  36.537  56.192  0.00  0.00    -0.349 N 
ATOM     15  C7  ASG d 302       5.134  35.594  57.202  0.00  0.00     0.214 C 
ATOM     16  OSC ASG d 302       3.695  32.556  51.829  0.00  0.00    -0.572 OA
ATOM     17  O3  ASG d 302       6.482  35.049  54.091  0.00  0.00    -0.348 OA
ATOM     18  C4  ASG d 302       5.108  36.024  52.417  0.00  0.00     0.114 C 
ATOM     19  H   ASG d 302       2.693  38.510  49.559  0.00  0.00     0.209 HD
ATOM     20  H   ASG d 302       4.219  36.850  50.058  0.00  0.00     0.078 H 
ATOM     21  H   ASG d 302       2.697  36.634  50.905  0.00  0.00     0.078 H 
ATOM     22  H   ASG d 302       4.073  35.486  54.871  0.00  0.00     0.084 H 
ATOM     23  H   ASG d 302       4.534  38.428  54.493  0.00  0.00     0.132 H 
ATOM     24  H   ASG d 302       4.989  38.104  52.094  0.00  0.00     0.090 H 
ATOM     25  H   ASG d 302       6.423  37.051  53.775  0.00  0.00     0.091 H 
ATOM     26  H   ASG d 302       5.682  35.213  59.216  0.00  0.00     0.040 H 
ATOM     27  H   ASG d 302       5.470  36.905  58.838  0.00  0.00     0.040 H 
ATOM     28  H   ASG d 302       6.897  36.059  58.289  0.00  0.00     0.040 H 
ATOM     29  H   ASG d 302       5.842  37.342  56.373  0.00  0.00     0.163 HD
ATOM     30  H   ASG d 302       5.845  35.861  51.658  0.00  0.00     0.093 H 
ATOM     31  C6  BDP d 303      10.350  36.444  51.799  0.00  0.00     0.206 C 
ATOM     32  O4  BDP d 303      11.907  34.823  53.742  0.00  0.00    -0.348 OA
ATOM     33  O3  BDP d 303      10.566  32.940  55.377  0.00  0.00    -0.390 OA
ATOM     34  C3  BDP d 303       9.961  34.170  54.945  0.00  0.00     0.092 C 
ATOM     35  O6B BDP d 303      10.400  35.607  50.876  0.00  0.00    -0.646 OA
ATOM     36  C4  BDP d 303      10.546  34.601  53.592  0.00  0.00     0.103 C 
ATOM     37  C2  BDP d 303       8.472  33.952  54.767  0.00  0.00     0.110 C 
ATOM     38  O6A BDP d 303      10.647  37.661  51.792  0.00  0.00    -0.646 OA
ATOM     39  C1  BDP d 303       7.837  35.249  54.290  0.00  0.00     0.160 C 
ATOM     40  C5  BDP d 303       9.860  35.921  53.147  0.00  0.00     0.152 C 
ATOM     41  O5  BDP d 303       8.426  35.699  53.041  0.00  0.00    -0.340 OA
ATOM     42  O2  BDP d 303       7.871  33.573  56.009  0.00  0.00    -0.388 OA
ATOM     43  H   BDP d 303      10.189  32.678  56.232  0.00  0.00     0.210 HD
ATOM     44  H   BDP d 303      10.152  34.925  55.678  0.00  0.00     0.091 H 
ATOM     45  H   BDP d 303      10.381  33.840  52.859  0.00  0.00     0.092 H 
ATOM     46  H   BDP d 303       8.316  33.172  54.051  0.00  0.00     0.094 H 
ATOM     47  H   BDP d 303       8.007  35.994  55.038  0.00  0.00     0.133 H 
ATOM     48  H   BDP d 303      10.106  36.652  53.889  0.00  0.00     0.104 H 
ATOM     49  H   BDP d 303       8.008  34.277  56.663  0.00  0.00     0.210 HD
ATOM     50  C1  ASG d 306      16.252  36.384  45.784  0.00  0.00     0.151 C 
ATOM     51  C4  ASG d 306      16.124  35.558  42.974  0.00  0.00     0.089 C 
ATOM     52  C6  ASG d 306      14.890  33.516  43.854  0.00  0.00     0.043 C 
ATOM     53  S   ASG d 306      17.839  34.257  41.558  0.00  0.00     0.252 S 
ATOM     54  O4  ASG d 306      17.351  34.828  42.956  0.00  0.00    -0.249 OA
ATOM     55  OSB ASG d 306      19.107  33.575  41.743  0.00  0.00    -0.572 OA
ATOM     56  OSA ASG d 306      16.854  33.317  41.054  0.00  0.00    -0.572 OA
ATOM     57  C3  ASG d 306      16.452  37.063  43.282  0.00  0.00    -0.014 C 
ATOM     58  C7  ASG d 306      18.690  38.734  45.790  0.00  0.00     0.214 C 
ATOM     59  N   ASG d 306      17.449  38.429  45.227  0.00  0.00    -0.352 N 
ATOM     60  C8  ASG d 306      18.800  40.181  46.203  0.00  0.00    -0.003 C 
ATOM     61  C2  ASG d 306      17.127  37.043  44.762  0.00  0.00     0.062 C 
ATOM     62  O5  ASG d 306      15.916  35.035  45.384  0.00  0.00    -0.349 OA
ATOM     63  O6  ASG d 306      14.155  32.972  44.949  0.00  0.00    -0.398 OA
ATOM     64  O7  ASG d 306      19.602  37.927  45.948  0.00  0.00    -0.274 OA
ATOM     65  OSC ASG d 306      17.999  35.344  40.616  0.00  0.00    -0.572 OA
ATOM     66  C5  ASG d 306      15.223  34.971  44.100  0.00  0.00     0.088 C 
ATOM     67  H   ASG d 306      15.338  36.932  45.877  0.00  0.00     0.132 H 
ATOM     68  H   ASG d 306      15.616  35.486  42.034  0.00  0.00     0.089 H 
ATOM     69  H   ASG d 306      15.799  32.963  43.732  0.00  0.00     0.078 H 
ATOM     70  H   ASG d 306      14.291  33.445  42.970  0.00  0.00     0.078 H 
ATOM     71  H   ASG d 306      15.558  37.651  43.283  0.00  0.00     0.040 H 
ATOM     72  H   ASG d 306      17.099  37.495  42.547  0.00  0.00     0.040 H 
ATOM     73  H   ASG d 306      16.772  39.138  45.135  0.00  0.00     0.163 HD
ATOM     74  H   ASG d 306      17.888  40.688  45.968  0.00  0.00     0.040 H 
ATOM     75  H   ASG d 306      19.610  40.641  45.677  0.00  0.00     0.040 H 
ATOM     76  H   ASG d 306      18.980  40.238  47.256  0.00  0.00     0.040 H 
ATOM     77  H   ASG d 306      18.027  36.471  44.666  0.00  0.00     0.080 H 
ATOM     78  H   ASG d 306      14.688  33.031  45.757  0.00  0.00     0.209 HD
ATOM     79  H   ASG d 306      14.326  35.554  44.107  0.00  0.00     0.090 H 
ATOM     80  C5  BDP d 305      16.455  36.873  49.311  0.00  0.00     0.152 C 
ATOM     81  O6B BDP d 305      14.236  37.599  49.058  0.00  0.00    -0.646 OA
ATOM     82  C6  BDP d 305      15.429  37.941  48.957  0.00  0.00     0.206 C 
ATOM     83  O4  BDP d 305      16.931  36.369  46.999  0.00  0.00    -0.348 OA
ATOM     84  O3  BDP d 305      17.852  33.763  47.662  0.00  0.00    -0.390 OA
ATOM     85  C2  BDP d 305      17.158  34.119  49.922  0.00  0.00     0.110 C 
ATOM     86  C1  BDP d 305      16.940  35.187  51.005  0.00  0.00     0.160 C 
ATOM     87  C4  BDP d 305      16.611  35.796  48.213  0.00  0.00     0.103 C 
ATOM     88  O6A BDP d 305      15.922  39.040  48.601  0.00  0.00    -0.646 OA
ATOM     89  C3  BDP d 305      17.675  34.775  48.656  0.00  0.00     0.092 C 
ATOM     90  O2  BDP d 305      18.085  33.151  50.419  0.00  0.00    -0.388 OA
ATOM     91  O5  BDP d 305      16.018  36.220  50.543  0.00  0.00    -0.340 OA
ATOM     92  H   BDP d 305      17.404  37.355  49.421  0.00  0.00     0.104 H 
ATOM     93  H   BDP d 305      18.526  33.131  47.960  0.00  0.00     0.210 HD
ATOM     94  H   BDP d 305      16.236  33.631  49.684  0.00  0.00     0.094 H 
ATOM     95  H   BDP d 305      17.888  35.635  51.218  0.00  0.00     0.133 H 
ATOM     96  H   BDP d 305      15.679  35.288  48.080  0.00  0.00     0.092 H 
ATOM     97  H   BDP d 305      18.612  35.267  48.810  0.00  0.00     0.091 H 
ATOM     98  H   BDP d 305      18.923  33.588  50.637  0.00  0.00     0.210 HD
ATOM     99  O6B BDP d 301       3.699  40.460  57.657  0.00  0.00    -0.646 OA
ATOM    100  C6  BDP d 301       3.225  39.310  57.785  0.00  0.00     0.206 C 
ATOM    101  O6A BDP d 301       3.650  38.337  58.446  0.00  0.00    -0.646 OA
ATOM    102  O5  BDP d 301       1.008  40.126  57.311  0.00  0.00    -0.340 OA
ATOM    103  C5  BDP d 301       1.931  39.050  57.025  0.00  0.00     0.152 C 
ATOM    104  C3  BDP d 301       0.743  38.690  54.847  0.00  0.00     0.092 C 
ATOM    105  C1  BDP d 301      -0.280  39.969  56.640  0.00  0.00     0.156 C 
ATOM    106  O1  BDP d 301      -1.138  41.133  57.072  0.00  0.00    -0.368 OA
ATOM    107  C4  BDP d 301       2.125  38.901  55.516  0.00  0.00     0.103 C 
ATOM    108  C2  BDP d 301      -0.138  39.893  55.148  0.00  0.00     0.110 C 
ATOM    109  O2  BDP d 301      -1.436  39.742  54.578  0.00  0.00    -0.388 OA
ATOM    110  O4  BDP d 301       2.854  37.736  55.376  0.00  0.00    -0.348 OA
ATOM    111  O3  BDP d 301       0.899  38.571  53.432  0.00  0.00    -0.390 OA
ATOM    112  H   BDP d 301       1.542  38.111  57.358  0.00  0.00     0.104 H 
ATOM    113  H   BDP d 301       0.297  37.796  55.230  0.00  0.00     0.091 H 
ATOM    114  H   BDP d 301      -0.737  39.042  56.918  0.00  0.00     0.133 H 
ATOM    115  H   BDP d 301      -0.710  41.964  56.813  0.00  0.00     0.212 HD
ATOM    116  H   BDP d 301       2.599  39.753  55.077  0.00  0.00     0.092 H 
ATOM    117  H   BDP d 301       0.306  40.775  54.736  0.00  0.00     0.094 H 
ATOM    118  H   BDP d 301      -1.857  38.947  54.939  0.00  0.00     0.210 HD
ATOM    119  H   BDP d 301       1.305  39.381  53.082  0.00  0.00     0.210 HD
ATOM    120  OSC ASG d 304      17.278  31.530  55.388  0.00  0.00    -0.572 OA
ATOM    121  O3  ASG d 304      16.416  34.593  52.174  0.00  0.00    -0.348 OA
ATOM    122  C5  ASG d 304      13.681  32.003  52.322  0.00  0.00     0.090 C 
ATOM    123  C6  ASG d 304      13.571  30.544  52.691  0.00  0.00     0.043 C 
ATOM    124  O4  ASG d 304      15.576  32.379  53.794  0.00  0.00    -0.246 OA
ATOM    125  C7  ASG d 304      13.907  37.250  53.568  0.00  0.00     0.214 C 
ATOM    126  C8  ASG d 304      13.911  38.633  52.960  0.00  0.00    -0.003 C 
ATOM    127  S   ASG d 304      16.892  31.497  53.992  0.00  0.00     0.252 S 
ATOM    128  OSB ASG d 304      16.634  30.126  53.590  0.00  0.00    -0.572 OA
ATOM    129  N   ASG d 304      14.133  36.251  52.632  0.00  0.00    -0.349 N 
ATOM    130  C4  ASG d 304      15.122  32.551  52.443  0.00  0.00     0.114 C 
ATOM    131  C3  ASG d 304      15.110  34.048  52.070  0.00  0.00     0.094 C 
ATOM    132  C1  ASG d 304      12.777  34.181  52.874  0.00  0.00     0.154 C 
ATOM    133  O7  ASG d 304      13.720  37.047  54.757  0.00  0.00    -0.274 OA
ATOM    134  O6  ASG d 304      12.370  29.978  52.165  0.00  0.00    -0.398 OA
ATOM    135  O5  ASG d 304      12.783  32.758  53.190  0.00  0.00    -0.349 OA
ATOM    136  C2  ASG d 304      14.174  34.797  53.003  0.00  0.00     0.087 C 
ATOM    137  OSA ASG d 304      17.966  32.036  53.173  0.00  0.00    -0.572 OA
ATOM    138  H   ASG d 304      13.407  32.109  51.294  0.00  0.00     0.090 H 
ATOM    139  H   ASG d 304      13.565  30.450  53.757  0.00  0.00     0.078 H 
ATOM    140  H   ASG d 304      14.408  30.021  52.278  0.00  0.00     0.078 H 
ATOM    141  H   ASG d 304      14.094  38.561  51.908  0.00  0.00     0.040 H 
ATOM    142  H   ASG d 304      14.680  39.221  53.415  0.00  0.00     0.040 H 
ATOM    143  H   ASG d 304      12.962  39.099  53.125  0.00  0.00     0.040 H 
ATOM    144  H   ASG d 304      14.273  36.506  51.691  0.00  0.00     0.163 HD
ATOM    145  H   ASG d 304      15.782  32.027  51.784  0.00  0.00     0.093 H 
ATOM    146  H   ASG d 304      14.772  34.149  51.059  0.00  0.00     0.091 H 
ATOM    147  H   ASG d 304      12.461  34.304  51.859  0.00  0.00     0.132 H 
ATOM    148  H   ASG d 304      11.604  30.445  52.534  0.00  0.00     0.209 HD
ATOM    149  H   ASG d 304      14.518  34.719  54.013  0.00  0.00     0.084 H 
ENDROOT
TORSDOF 38
ENDMDL
MODEL 63
REMARK VINA RESULT:      -4.8      3.542      4.030
REMARK  0 active torsions:
REMARK  status: ('A' for Active; 'I' for Inactive)
REMARK       I    between atoms: C6_2  and  C5_74 
REMARK       I    between atoms: C1_3  and  O4_24 
REMARK       I    between atoms: O6_4  and  C6_26 
REMARK       I    between atoms: C5_5  and  C6_12 
REMARK       I    between atoms: C4_6  and  O4_22 
REMARK       I    between atoms: C6_8  and  C5_90 
REMARK       I    between atoms: C6_8  and  O6_83 
REMARK       I    between atoms: O3_11  and  C3_60 
REMARK       I    between atoms: O3_11  and  C1_29 
REMARK       I    between atoms: C5_13  and  C6_18 
REMARK       I    between atoms: O4_14  and  C4_88 
REMARK       I    between atoms: O4_14  and  S_15 
REMARK       I    between atoms: C6_16  and  C5_28 
REMARK       I    between atoms: S_17  and  O4_22 
REMARK       I    between atoms: C6_18  and  O6_66 
REMARK       I    between atoms: O4_20  and  C4_46 
REMARK       I    between atoms: O4_20  and  C1_61 
REMARK       I    between atoms: O4_21  and  C4_54 
REMARK       I    between atoms: O4_21  and  S_40 
REMARK       I    between atoms: O4_24  and  C4_35 
REMARK       I    between atoms: O3_25  and  C3_48 
REMARK       I    between atoms: C6_26  and  C5_50 
REMARK       I    between atoms: C2_27  and  O2_55 
REMARK       I    between atoms: O3_31  and  C3_37 
REMARK       I    between atoms: C2_32  and  N_72 
REMARK       I    between atoms: C7_33  and  C8_39 
REMARK       I    between atoms: C7_33  and  N_52 
REMARK       I    between atoms: C1_34  and  O4_86 
REMARK       I    between atoms: C3_36  and  O3_87 
REMARK       I    between atoms: C2_47  and  O2_85 
REMARK       I    between atoms: N_52  and  C2_71 
REMARK       I    between atoms: C3_53  and  O3_81 
REMARK       I    between atoms: C1_56  and  O3_81 
REMARK       I    between atoms: C7_57  and  C8_64 
REMARK       I    between atoms: C7_57  and  N_63 
REMARK       I    between atoms: C8_58  and  C7_73 
REMARK       I    between atoms: C1_59  and  O1_68 
REMARK       I    between atoms: N_63  and  C2_67 
REMARK       I    between atoms: C4_69  and  O4_86 
REMARK       I    between atoms: N_72  and  C7_73 
REMARK       I    between atoms: C2_77  and  O2_82 
ROOT
ATOM      1  OSB ASG d 302      14.643  38.756  44.024  0.00  0.00    -0.572 OA
ATOM      2  O6  ASG d 302      13.500  34.970  42.108  0.00  0.00    -0.398 OA
ATOM      3  O4  ASG d 302      16.295  37.024  44.700  0.00  0.00    -0.246 OA
ATOM      4  S   ASG d 302      15.679  38.472  44.998  0.00  0.00     0.252 S 
ATOM      5  C6  ASG d 302      14.184  35.846  42.999  0.00  0.00     0.043 C 
ATOM      6  C2  ASG d 302      17.707  34.614  45.111  0.00  0.00     0.087 C 
ATOM      7  C1  ASG d 302      17.202  33.887  43.873  0.00  0.00     0.154 C 
ATOM      8  O5  ASG d 302      16.264  34.691  43.122  0.00  0.00    -0.349 OA
ATOM      9  C5  ASG d 302      15.106  35.068  43.903  0.00  0.00     0.090 C 
ATOM     10  O7  ASG d 302      20.388  35.247  45.948  0.00  0.00    -0.274 OA
ATOM     11  C3  ASG d 302      16.501  34.963  45.963  0.00  0.00     0.094 C 
ATOM     12  C8  ASG d 302      20.687  33.110  47.002  0.00  0.00    -0.003 C 
ATOM     13  OSA ASG d 302      15.114  38.511  46.334  0.00  0.00    -0.572 OA
ATOM     14  N   ASG d 302      18.640  33.732  45.873  0.00  0.00    -0.349 N 
ATOM     15  C7  ASG d 302      19.919  34.154  46.225  0.00  0.00     0.214 C 
ATOM     16  OSC ASG d 302      16.725  39.463  44.889  0.00  0.00    -0.572 OA
ATOM     17  O3  ASG d 302      16.955  35.676  47.057  0.00  0.00    -0.348 OA
ATOM     18  C4  ASG d 302      15.563  35.864  45.142  0.00  0.00     0.114 C 
ATOM     19  H   ASG d 302      12.913  35.486  41.535  0.00  0.00     0.209 HD
ATOM     20  H   ASG d 302      13.468  36.371  43.595  0.00  0.00     0.078 H 
ATOM     21  H   ASG d 302      14.766  36.536  42.425  0.00  0.00     0.078 H 
ATOM     22  H   ASG d 302      18.238  35.502  44.837  0.00  0.00     0.084 H 
ATOM     23  H   ASG d 302      16.710  32.997  44.203  0.00  0.00     0.132 H 
ATOM     24  H   ASG d 302      14.572  34.218  44.274  0.00  0.00     0.090 H 
ATOM     25  H   ASG d 302      15.980  34.081  46.271  0.00  0.00     0.091 H 
ATOM     26  H   ASG d 302      21.658  33.488  47.244  0.00  0.00     0.040 H 
ATOM     27  H   ASG d 302      20.786  32.225  46.408  0.00  0.00     0.040 H 
ATOM     28  H   ASG d 302      20.160  32.877  47.903  0.00  0.00     0.040 H 
ATOM     29  H   ASG d 302      18.344  32.830  46.134  0.00  0.00     0.163 HD
ATOM     30  H   ASG d 302      14.723  36.168  45.732  0.00  0.00     0.093 H 
ATOM     31  C6  BDP d 303      13.231  34.578  49.720  0.00  0.00     0.206 C 
ATOM     32  O4  BDP d 303      15.035  34.794  52.071  0.00  0.00    -0.348 OA
ATOM     33  O3  BDP d 303      17.566  36.029  51.777  0.00  0.00    -0.390 OA
ATOM     34  C3  BDP d 303      16.934  35.282  50.725  0.00  0.00     0.092 C 
ATOM     35  O6B BDP d 303      12.702  35.698  49.869  0.00  0.00    -0.646 OA
ATOM     36  C4  BDP d 303      15.407  35.361  50.861  0.00  0.00     0.103 C 
ATOM     37  C2  BDP d 303      17.321  35.887  49.389  0.00  0.00     0.110 C 
ATOM     38  O6A BDP d 303      12.697  33.453  49.584  0.00  0.00    -0.646 OA
ATOM     39  C1  BDP d 303      16.636  35.108  48.278  0.00  0.00     0.160 C 
ATOM     40  C5  BDP d 303      14.758  34.560  49.700  0.00  0.00     0.152 C 
ATOM     41  O5  BDP d 303      15.191  35.125  48.431  0.00  0.00    -0.340 OA
ATOM     42  O2  BDP d 303      18.737  35.814  49.199  0.00  0.00    -0.388 OA
ATOM     43  H   BDP d 303      18.529  35.971  51.681  0.00  0.00     0.210 HD
ATOM     44  H   BDP d 303      17.251  34.262  50.787  0.00  0.00     0.091 H 
ATOM     45  H   BDP d 303      15.085  36.381  50.823  0.00  0.00     0.092 H 
ATOM     46  H   BDP d 303      17.018  36.913  49.370  0.00  0.00     0.094 H 
ATOM     47  H   BDP d 303      16.975  34.095  48.328  0.00  0.00     0.133 H 
ATOM     48  H   BDP d 303      15.073  33.545  49.824  0.00  0.00     0.104 H 
ATOM     49  H   BDP d 303      19.018  34.885  49.215  0.00  0.00     0.210 HD
ATOM     50  C1  ASG d 306       6.115  35.905  54.035  0.00  0.00     0.151 C 
ATOM     51  C4  ASG d 306       3.977  37.875  53.656  0.00  0.00     0.089 C 
ATOM     52  C6  ASG d 306       5.867  39.553  53.371  0.00  0.00     0.043 C 
ATOM     53  S   ASG d 306       2.660  39.235  55.404  0.00  0.00     0.252 S 
ATOM     54  O4  ASG d 306       3.839  38.241  55.030  0.00  0.00    -0.249 OA
ATOM     55  OSB ASG d 306       2.671  39.461  56.838  0.00  0.00    -0.572 OA
ATOM     56  OSA ASG d 306       2.861  40.496  54.714  0.00  0.00    -0.572 OA
ATOM     57  C3  ASG d 306       3.608  36.354  53.513  0.00  0.00    -0.014 C 
ATOM     58  C7  ASG d 306       4.519  33.301  55.497  0.00  0.00     0.214 C 
ATOM     59  N   ASG d 306       4.520  34.093  54.347  0.00  0.00    -0.352 N 
ATOM     60  C8  ASG d 306       4.331  31.835  55.192  0.00  0.00    -0.003 C 
ATOM     61  C2  ASG d 306       4.707  35.576  54.426  0.00  0.00     0.062 C 
ATOM     62  O5  ASG d 306       6.351  37.331  54.100  0.00  0.00    -0.349 OA
ATOM     63  O6  ASG d 306       7.254  39.717  53.084  0.00  0.00    -0.398 OA
ATOM     64  O7  ASG d 306       4.662  33.729  56.639  0.00  0.00    -0.274 OA
ATOM     65  OSC ASG d 306       1.393  38.660  55.007  0.00  0.00    -0.572 OA
ATOM     66  C5  ASG d 306       5.459  38.102  53.237  0.00  0.00     0.088 C 
ATOM     67  H   ASG d 306       6.287  35.594  53.026  0.00  0.00     0.132 H 
ATOM     68  H   ASG d 306       3.334  38.461  53.032  0.00  0.00     0.089 H 
ATOM     69  H   ASG d 306       5.673  39.881  54.371  0.00  0.00     0.078 H 
ATOM     70  H   ASG d 306       5.301  40.134  52.673  0.00  0.00     0.078 H 
ATOM     71  H   ASG d 306       3.678  36.044  52.492  0.00  0.00     0.040 H 
ATOM     72  H   ASG d 306       2.605  36.150  53.824  0.00  0.00     0.040 H 
ATOM     73  H   ASG d 306       4.397  33.668  53.467  0.00  0.00     0.163 HD
ATOM     74  H   ASG d 306       4.228  31.702  54.136  0.00  0.00     0.040 H 
ATOM     75  H   ASG d 306       3.451  31.479  55.685  0.00  0.00     0.040 H 
ATOM     76  H   ASG d 306       5.182  31.287  55.540  0.00  0.00     0.040 H 
ATOM     77  H   ASG d 306       4.546  35.912  55.429  0.00  0.00     0.080 H 
ATOM     78  H   ASG d 306       7.779  39.194  53.711  0.00  0.00     0.209 HD
ATOM     79  H   ASG d 306       5.537  37.794  52.215  0.00  0.00     0.090 H 
ATOM     80  C5  BDP d 305       8.982  33.900  54.732  0.00  0.00     0.152 C 
ATOM     81  O6B BDP d 305       9.193  33.880  52.393  0.00  0.00    -0.646 OA
ATOM     82  C6  BDP d 305       8.609  33.355  53.360  0.00  0.00     0.206 C 
ATOM     83  O4  BDP d 305       6.978  35.236  54.898  0.00  0.00    -0.348 OA
ATOM     84  O3  BDP d 305       8.205  37.010  56.748  0.00  0.00    -0.390 OA
ATOM     85  C2  BDP d 305      10.284  35.876  56.420  0.00  0.00     0.110 C 
ATOM     86  C1  BDP d 305      10.924  34.525  56.069  0.00  0.00     0.160 C 
ATOM     87  C4  BDP d 305       8.352  35.281  55.027  0.00  0.00     0.103 C 
ATOM     88  O6A BDP d 305       7.749  32.441  53.378  0.00  0.00    -0.646 OA
ATOM     89  C3  BDP d 305       8.774  35.737  56.436  0.00  0.00     0.092 C 
ATOM     90  O2  BDP d 305      10.779  36.294  57.695  0.00  0.00    -0.388 OA
ATOM     91  O5  BDP d 305      10.436  34.034  54.784  0.00  0.00    -0.340 OA
ATOM     92  H   BDP d 305       8.610  33.217  55.467  0.00  0.00     0.104 H 
ATOM     93  H   BDP d 305       8.483  37.279  57.638  0.00  0.00     0.210 HD
ATOM     94  H   BDP d 305      10.537  36.614  55.688  0.00  0.00     0.094 H 
ATOM     95  H   BDP d 305      10.655  33.827  56.834  0.00  0.00     0.133 H 
ATOM     96  H   BDP d 305       8.707  35.993  54.312  0.00  0.00     0.092 H 
ATOM     97  H   BDP d 305       8.441  35.029  57.165  0.00  0.00     0.091 H 
ATOM     98  H   BDP d 305      10.553  35.628  58.363  0.00  0.00     0.210 HD
ATOM     99  O6B BDP d 301      19.029  30.041  43.357  0.00  0.00    -0.646 OA
ATOM    100  C6  BDP d 301      19.701  31.095  43.329  0.00  0.00     0.206 C 
ATOM    101  O6A BDP d 301      20.498  31.559  44.174  0.00  0.00    -0.646 OA
ATOM    102  O5  BDP d 301      19.684  31.093  40.920  0.00  0.00    -0.340 OA
ATOM    103  C5  BDP d 301      19.529  31.945  42.077  0.00  0.00     0.152 C 
ATOM    104  C3  BDP d 301      18.112  33.475  40.686  0.00  0.00     0.092 C 
ATOM    105  C1  BDP d 301      19.552  31.813  39.656  0.00  0.00     0.156 C 
ATOM    106  O1  BDP d 301      19.784  30.805  38.557  0.00  0.00    -0.368 OA
ATOM    107  C4  BDP d 301      18.193  32.687  42.018  0.00  0.00     0.103 C 
ATOM    108  C2  BDP d 301      18.221  32.495  39.528  0.00  0.00     0.110 C 
ATOM    109  O2  BDP d 301      18.179  33.168  38.272  0.00  0.00    -0.388 OA
ATOM    110  O4  BDP d 301      18.258  33.598  43.055  0.00  0.00    -0.348 OA
ATOM    111  O3  BDP d 301      16.859  34.157  40.599  0.00  0.00    -0.390 OA
ATOM    112  H   BDP d 301      20.279  32.708  42.097  0.00  0.00     0.104 H 
ATOM    113  H   BDP d 301      18.907  34.189  40.647  0.00  0.00     0.091 H 
ATOM    114  H   BDP d 301      20.271  32.603  39.599  0.00  0.00     0.133 H 
ATOM    115  H   BDP d 301      19.126  30.096  38.624  0.00  0.00     0.212 HD
ATOM    116  H   BDP d 301      17.354  32.027  42.086  0.00  0.00     0.092 H 
ATOM    117  H   BDP d 301      17.404  31.805  39.563  0.00  0.00     0.094 H 
ATOM    118  H   BDP d 301      18.912  33.801  38.219  0.00  0.00     0.210 HD
ATOM    119  H   BDP d 301      16.136  33.512  40.635  0.00  0.00     0.210 HD
ATOM    120  OSC ASG d 304      15.983  35.732  58.444  0.00  0.00    -0.572 OA
ATOM    121  O3  ASG d 304      12.328  34.653  56.007  0.00  0.00    -0.348 OA
ATOM    122  C5  ASG d 304      14.239  37.467  54.381  0.00  0.00     0.090 C 
ATOM    123  C6  ASG d 304      15.120  38.603  54.840  0.00  0.00     0.043 C 
ATOM    124  O4  ASG d 304      14.809  36.070  56.285  0.00  0.00    -0.246 OA
ATOM    125  C7  ASG d 304      13.390  32.301  53.069  0.00  0.00     0.214 C 
ATOM    126  C8  ASG d 304      12.358  31.358  52.492  0.00  0.00    -0.003 C 
ATOM    127  S   ASG d 304      14.886  36.454  57.832  0.00  0.00     0.252 S 
ATOM    128  OSB ASG d 304      15.104  37.882  57.977  0.00  0.00    -0.572 OA
ATOM    129  N   ASG d 304      12.852  33.526  53.433  0.00  0.00    -0.349 N 
ATOM    130  C4  ASG d 304      13.699  36.610  55.549  0.00  0.00     0.114 C 
ATOM    131  C3  ASG d 304      12.839  35.469  54.966  0.00  0.00     0.094 C 
ATOM    132  C1  ASG d 304      14.229  35.533  52.922  0.00  0.00     0.154 C 
ATOM    133  O7  ASG d 304      14.567  32.003  53.192  0.00  0.00    -0.274 OA
ATOM    134  O6  ASG d 304      15.234  39.598  53.821  0.00  0.00    -0.398 OA
ATOM    135  O5  ASG d 304      15.013  36.635  53.465  0.00  0.00    -0.349 OA
ATOM    136  C2  ASG d 304      13.686  34.623  54.029  0.00  0.00     0.087 C 
ATOM    137  OSA ASG d 304      13.638  36.097  58.486  0.00  0.00    -0.572 OA
ATOM    138  H   ASG d 304      13.381  37.883  53.897  0.00  0.00     0.090 H 
ATOM    139  H   ASG d 304      16.093  38.223  55.069  0.00  0.00     0.078 H 
ATOM    140  H   ASG d 304      14.681  39.049  55.708  0.00  0.00     0.078 H 
ATOM    141  H   ASG d 304      11.402  31.837  52.484  0.00  0.00     0.040 H 
ATOM    142  H   ASG d 304      12.309  30.473  53.092  0.00  0.00     0.040 H 
ATOM    143  H   ASG d 304      12.634  31.095  51.492  0.00  0.00     0.040 H 
ATOM    144  H   ASG d 304      11.889  33.681  53.297  0.00  0.00     0.163 HD
ATOM    145  H   ASG d 304      13.101  37.203  56.209  0.00  0.00     0.093 H 
ATOM    146  H   ASG d 304      12.020  35.897  54.426  0.00  0.00     0.091 H 
ATOM    147  H   ASG d 304      13.390  35.939  52.395  0.00  0.00     0.132 H 
ATOM    148  H   ASG d 304      15.631  39.204  53.027  0.00  0.00     0.209 HD
ATOM    149  H   ASG d 304      14.495  34.175  54.566  0.00  0.00     0.084 H 
ENDROOT
TORSDOF 38
ENDMDL
MODEL 64
REMARK VINA RESULT:      -4.8      4.610     16.236
REMARK  0 active torsions:
REMARK  status: ('A' for Active; 'I' for Inactive)
REMARK       I    between atoms: C6_2  and  C5_74 
REMARK       I    between atoms: C1_3  and  O4_24 
REMARK       I    between atoms: O6_4  and  C6_26 
REMARK       I    between atoms: C5_5  and  C6_12 
REMARK       I    between atoms: C4_6  and  O4_22 
REMARK       I    between atoms: C6_8  and  C5_90 
REMARK       I    between atoms: C6_8  and  O6_83 
REMARK       I    between atoms: O3_11  and  C3_60 
REMARK       I    between atoms: O3_11  and  C1_29 
REMARK       I    between atoms: C5_13  and  C6_18 
REMARK       I    between atoms: O4_14  and  C4_88 
REMARK       I    between atoms: O4_14  and  S_15 
REMARK       I    between atoms: C6_16  and  C5_28 
REMARK       I    between atoms: S_17  and  O4_22 
REMARK       I    between atoms: C6_18  and  O6_66 
REMARK       I    between atoms: O4_20  and  C4_46 
REMARK       I    between atoms: O4_20  and  C1_61 
REMARK       I    between atoms: O4_21  and  C4_54 
REMARK       I    between atoms: O4_21  and  S_40 
REMARK       I    between atoms: O4_24  and  C4_35 
REMARK       I    between atoms: O3_25  and  C3_48 
REMARK       I    between atoms: C6_26  and  C5_50 
REMARK       I    between atoms: C2_27  and  O2_55 
REMARK       I    between atoms: O3_31  and  C3_37 
REMARK       I    between atoms: C2_32  and  N_72 
REMARK       I    between atoms: C7_33  and  C8_39 
REMARK       I    between atoms: C7_33  and  N_52 
REMARK       I    between atoms: C1_34  and  O4_86 
REMARK       I    between atoms: C3_36  and  O3_87 
REMARK       I    between atoms: C2_47  and  O2_85 
REMARK       I    between atoms: N_52  and  C2_71 
REMARK       I    between atoms: C3_53  and  O3_81 
REMARK       I    between atoms: C1_56  and  O3_81 
REMARK       I    between atoms: C7_57  and  C8_64 
REMARK       I    between atoms: C7_57  and  N_63 
REMARK       I    between atoms: C8_58  and  C7_73 
REMARK       I    between atoms: C1_59  and  O1_68 
REMARK       I    between atoms: N_63  and  C2_67 
REMARK       I    between atoms: C4_69  and  O4_86 
REMARK       I    between atoms: N_72  and  C7_73 
REMARK       I    between atoms: C2_77  and  O2_82 
ROOT
ATOM      1  OSB ASG d 302       6.286  38.485  51.445  0.00  0.00    -0.572 OA
ATOM      2  O6  ASG d 302       6.521  34.757  53.760  0.00  0.00    -0.398 OA
ATOM      3  O4  ASG d 302       4.954  36.756  50.252  0.00  0.00    -0.246 OA
ATOM      4  S   ASG d 302       5.680  38.181  50.163  0.00  0.00     0.252 S 
ATOM      5  C6  ASG d 302       6.244  35.609  52.652  0.00  0.00     0.043 C 
ATOM      6  C2  ASG d 302       3.725  34.356  49.416  0.00  0.00     0.087 C 
ATOM      7  C1  ASG d 302       3.711  33.669  50.774  0.00  0.00     0.154 C 
ATOM      8  O5  ASG d 302       4.326  34.485  51.797  0.00  0.00    -0.349 OA
ATOM      9  C5  ASG d 302       5.702  34.812  51.493  0.00  0.00     0.090 C 
ATOM     10  O7  ASG d 302       1.568  35.001  47.621  0.00  0.00    -0.274 OA
ATOM     11  C3  ASG d 302       5.172  34.652  49.065  0.00  0.00     0.094 C 
ATOM     12  C8  ASG d 302       1.620  32.830  46.595  0.00  0.00    -0.003 C 
ATOM     13  OSA ASG d 302       6.702  38.160  49.134  0.00  0.00    -0.572 OA
ATOM     14  N   ASG d 302       3.117  33.461  48.387  0.00  0.00    -0.349 N 
ATOM     15  C7  ASG d 302       2.074  33.890  47.571  0.00  0.00     0.214 C 
ATOM     16  OSC ASG d 302       4.698  39.193  49.845  0.00  0.00    -0.572 OA
ATOM     17  O3  ASG d 302       5.179  35.329  47.860  0.00  0.00    -0.348 OA
ATOM     18  C4  ASG d 302       5.763  35.568  50.150  0.00  0.00     0.114 C 
ATOM     19  H   ASG d 302       6.868  35.285  54.495  0.00  0.00     0.209 HD
ATOM     20  H   ASG d 302       7.146  36.099  52.351  0.00  0.00     0.078 H 
ATOM     21  H   ASG d 302       5.511  36.331  52.947  0.00  0.00     0.078 H 
ATOM     22  H   ASG d 302       3.157  35.262  49.445  0.00  0.00     0.084 H 
ATOM     23  H   ASG d 302       4.265  32.759  50.677  0.00  0.00     0.132 H 
ATOM     24  H   ASG d 302       6.311  33.941  51.373  0.00  0.00     0.090 H 
ATOM     25  H   ASG d 302       5.744  33.749  49.000  0.00  0.00     0.091 H 
ATOM     26  H   ASG d 302       0.821  33.214  45.998  0.00  0.00     0.040 H 
ATOM     27  H   ASG d 302       1.281  31.970  47.135  0.00  0.00     0.040 H 
ATOM     28  H   ASG d 302       2.437  32.554  45.963  0.00  0.00     0.040 H 
ATOM     29  H   ASG d 302       3.462  32.545  48.282  0.00  0.00     0.163 HD
ATOM     30  H   ASG d 302       6.771  35.835  49.908  0.00  0.00     0.093 H 
ATOM     31  C6  BDP d 303       9.591  34.068  46.812  0.00  0.00     0.206 C 
ATOM     32  O4  BDP d 303       8.800  34.224  43.953  0.00  0.00    -0.348 OA
ATOM     33  O3  BDP d 303       6.379  35.511  43.245  0.00  0.00    -0.390 OA
ATOM     34  C3  BDP d 303       6.551  34.794  44.478  0.00  0.00     0.092 C 
ATOM     35  O6B BDP d 303      10.171  35.172  46.838  0.00  0.00    -0.646 OA
ATOM     36  C4  BDP d 303       8.021  34.843  44.919  0.00  0.00     0.103 C 
ATOM     37  C2  BDP d 303       5.714  35.457  45.555  0.00  0.00     0.110 C 
ATOM     38  O6A BDP d 303      10.003  32.940  47.170  0.00  0.00    -0.646 OA
ATOM     39  C1  BDP d 303       5.913  34.710  46.864  0.00  0.00     0.160 C 
ATOM     40  C5  BDP d 303       8.167  34.076  46.261  0.00  0.00     0.152 C 
ATOM     41  O5  BDP d 303       7.310  34.696  47.260  0.00  0.00    -0.340 OA
ATOM     42  O2  BDP d 303       4.327  35.414  45.205  0.00  0.00    -0.388 OA
ATOM     43  H   BDP d 303       5.448  35.473  42.977  0.00  0.00     0.210 HD
ATOM     44  H   BDP d 303       6.251  33.778  44.332  0.00  0.00     0.091 H 
ATOM     45  H   BDP d 303       8.336  35.858  45.044  0.00  0.00     0.092 H 
ATOM     46  H   BDP d 303       6.018  36.478  45.655  0.00  0.00     0.094 H 
ATOM     47  H   BDP d 303       5.586  33.701  46.721  0.00  0.00     0.133 H 
ATOM     48  H   BDP d 303       7.891  33.062  46.059  0.00  0.00     0.104 H 
ATOM     49  H   BDP d 303       4.044  34.491  45.113  0.00  0.00     0.210 HD
ATOM     50  C1  ASG d 306      17.839  35.109  45.426  0.00  0.00     0.151 C 
ATOM     51  C4  ASG d 306      19.740  37.056  46.517  0.00  0.00     0.089 C 
ATOM     52  C6  ASG d 306      17.931  38.775  46.027  0.00  0.00     0.043 C 
ATOM     53  S   ASG d 306      21.653  38.326  45.347  0.00  0.00     0.252 S 
ATOM     54  O4  ASG d 306      20.390  37.367  45.283  0.00  0.00    -0.249 OA
ATOM     55  OSB ASG d 306      22.183  38.498  44.006  0.00  0.00    -0.572 OA
ATOM     56  OSA ASG d 306      21.247  39.616  45.875  0.00  0.00    -0.572 OA
ATOM     57  C3  ASG d 306      19.984  35.537  46.832  0.00  0.00    -0.014 C 
ATOM     58  C7  ASG d 306      19.786  32.424  44.742  0.00  0.00     0.214 C 
ATOM     59  N   ASG d 306      19.380  33.260  45.785  0.00  0.00    -0.352 N 
ATOM     60  C8  ASG d 306      19.803  30.969  45.138  0.00  0.00    -0.003 C 
ATOM     61  C2  ASG d 306      19.281  34.742  45.598  0.00  0.00     0.062 C 
ATOM     62  O5  ASG d 306      17.687  36.536  45.235  0.00  0.00    -0.349 OA
ATOM     63  O6  ASG d 306      16.541  38.974  45.770  0.00  0.00    -0.398 OA
ATOM     64  O7  ASG d 306      20.091  32.811  43.617  0.00  0.00    -0.274 OA
ATOM     65  OSC ASG d 306      22.663  37.746  46.204  0.00  0.00    -0.572 OA
ATOM     66  C5  ASG d 306      18.216  37.324  46.345  0.00  0.00     0.088 C 
ATOM     67  H   ASG d 306      17.295  34.840  46.307  0.00  0.00     0.132 H 
ATOM     68  H   ASG d 306      20.122  37.655  47.317  0.00  0.00     0.089 H 
ATOM     69  H   ASG d 306      18.492  39.062  45.161  0.00  0.00     0.078 H 
ATOM     70  H   ASG d 306      18.213  39.374  46.868  0.00  0.00     0.078 H 
ATOM     71  H   ASG d 306      19.529  35.267  47.762  0.00  0.00     0.040 H 
ATOM     72  H   ASG d 306      21.024  35.304  46.923  0.00  0.00     0.040 H 
ATOM     73  H   ASG d 306      19.155  32.868  46.659  0.00  0.00     0.163 HD
ATOM     74  H   ASG d 306      19.501  30.875  46.160  0.00  0.00     0.040 H 
ATOM     75  H   ASG d 306      20.792  30.579  45.020  0.00  0.00     0.040 H 
ATOM     76  H   ASG d 306      19.128  30.422  44.514  0.00  0.00     0.040 H 
ATOM     77  H   ASG d 306      19.814  35.037  44.718  0.00  0.00     0.080 H 
ATOM     78  H   ASG d 306      16.273  38.436  45.009  0.00  0.00     0.209 HD
ATOM     79  H   ASG d 306      17.754  37.057  47.273  0.00  0.00     0.090 H 
ATOM     80  C5  BDP d 305      15.379  33.127  43.769  0.00  0.00     0.152 C 
ATOM     81  O6B BDP d 305      14.312  33.201  45.860  0.00  0.00    -0.646 OA
ATOM     82  C6  BDP d 305      15.198  32.630  45.197  0.00  0.00     0.206 C 
ATOM     83  O4  BDP d 305      17.340  34.422  44.323  0.00  0.00    -0.348 OA
ATOM     84  O3  BDP d 305      16.943  36.144  42.097  0.00  0.00    -0.390 OA
ATOM     85  C2  BDP d 305      14.858  35.059  41.660  0.00  0.00     0.110 C 
ATOM     86  C1  BDP d 305      14.094  33.732  41.787  0.00  0.00     0.160 C 
ATOM     87  C4  BDP d 305      16.114  34.485  43.690  0.00  0.00     0.103 C 
ATOM     88  O6A BDP d 305      15.975  31.701  45.528  0.00  0.00    -0.646 OA
ATOM     89  C3  BDP d 305      16.260  34.894  42.212  0.00  0.00     0.092 C 
ATOM     90  O2  BDP d 305      14.886  35.435  40.280  0.00  0.00    -0.388 OA
ATOM     91  O5  BDP d 305      14.053  33.283  43.175  0.00  0.00    -0.340 OA
ATOM     92  H   BDP d 305      15.977  32.411  43.247  0.00  0.00     0.104 H 
ATOM     93  H   BDP d 305      17.024  36.383  41.160  0.00  0.00     0.210 HD
ATOM     94  H   BDP d 305      14.373  35.828  42.222  0.00  0.00     0.094 H 
ATOM     95  H   BDP d 305      14.607  33.001  41.198  0.00  0.00     0.133 H 
ATOM     96  H   BDP d 305      15.540  35.230  44.200  0.00  0.00     0.092 H 
ATOM     97  H   BDP d 305      16.820  34.153  41.681  0.00  0.00     0.091 H 
ATOM     98  H   BDP d 305      15.325  34.740  39.765  0.00  0.00     0.210 HD
ATOM     99  O6B BDP d 301       1.710  29.876  50.684  0.00  0.00    -0.646 OA
ATOM    100  C6  BDP d 301       1.108  30.942  50.428  0.00  0.00     0.206 C 
ATOM    101  O6A BDP d 301       0.697  31.386  49.334  0.00  0.00    -0.646 OA
ATOM    102  O5  BDP d 301       0.227  31.032  52.668  0.00  0.00    -0.340 OA
ATOM    103  C5  BDP d 301       0.827  31.836  51.628  0.00  0.00     0.152 C 
ATOM    104  C3  BDP d 301       1.669  33.394  53.402  0.00  0.00     0.092 C 
ATOM    105  C1  BDP d 301      -0.100  31.797  53.869  0.00  0.00     0.156 C 
ATOM    106  O1  BDP d 301      -0.754  30.836  54.831  0.00  0.00    -0.368 OA
ATOM    107  C4  BDP d 301       2.066  32.557  52.159  0.00  0.00     0.103 C 
ATOM    108  C2  BDP d 301       1.107  32.462  54.464  0.00  0.00     0.110 C 
ATOM    109  O2  BDP d 301       0.699  33.182  55.625  0.00  0.00    -0.388 OA
ATOM    110  O4  BDP d 301       2.418  33.429  51.147  0.00  0.00    -0.348 OA
ATOM    111  O3  BDP d 301       2.819  34.059  53.929  0.00  0.00    -0.390 OA
ATOM    112  H   BDP d 301       0.161  32.610  51.307  0.00  0.00     0.104 H 
ATOM    113  H   BDP d 301       0.938  34.122  53.120  0.00  0.00     0.091 H 
ATOM    114  H   BDP d 301      -0.764  32.601  53.631  0.00  0.00     0.133 H 
ATOM    115  H   BDP d 301      -0.139  30.115  55.035  0.00  0.00     0.212 HD
ATOM    116  H   BDP d 301       2.850  31.882  52.429  0.00  0.00     0.092 H 
ATOM    117  H   BDP d 301       1.857  31.757  54.757  0.00  0.00     0.094 H 
ATOM    118  H   BDP d 301       0.018  33.828  55.381  0.00  0.00     0.210 HD
ATOM    119  H   BDP d 301       3.484  33.400  54.185  0.00  0.00     0.210 HD
ATOM    120  OSC ASG d 304      10.320  34.931  37.661  0.00  0.00    -0.572 OA
ATOM    121  O3  ASG d 304      12.771  33.886  41.316  0.00  0.00    -0.348 OA
ATOM    122  C5  ASG d 304      10.478  36.792  42.028  0.00  0.00     0.090 C 
ATOM    123  C6  ASG d 304       9.865  37.924  41.241  0.00  0.00     0.043 C 
ATOM    124  O4  ASG d 304      10.616  35.333  40.092  0.00  0.00    -0.246 OA
ATOM    125  C7  ASG d 304      10.623  31.667  43.715  0.00  0.00     0.214 C 
ATOM    126  C8  ASG d 304      11.337  30.730  44.662  0.00  0.00    -0.003 C 
ATOM    127  S   ASG d 304      11.131  35.658  38.617  0.00  0.00     0.252 S 
ATOM    128  OSB ASG d 304      11.026  37.083  38.359  0.00  0.00    -0.572 OA
ATOM    129  N   ASG d 304      11.294  32.868  43.541  0.00  0.00    -0.349 N 
ATOM    130  C4  ASG d 304      11.388  35.881  41.172  0.00  0.00     0.114 C 
ATOM    131  C3  ASG d 304      11.934  34.750  42.067  0.00  0.00     0.094 C 
ATOM    132  C1  ASG d 304       9.887  34.915  43.442  0.00  0.00     0.154 C 
ATOM    133  O7  ASG d 304       9.568  31.384  43.170  0.00  0.00    -0.274 OA
ATOM    134  O6  ASG d 304       9.410  38.959  42.114  0.00  0.00    -0.398 OA
ATOM    135  O5  ASG d 304       9.394  36.009  42.613  0.00  0.00    -0.349 OA
ATOM    136  C2  ASG d 304      10.775  33.955  42.645  0.00  0.00     0.087 C 
ATOM    137  OSA ASG d 304      12.522  35.255  38.486  0.00  0.00    -0.572 OA
ATOM    138  H   ASG d 304      11.106  37.212  42.785  0.00  0.00     0.090 H 
ATOM    139  H   ASG d 304       9.037  37.552  40.677  0.00  0.00     0.078 H 
ATOM    140  H   ASG d 304      10.608  38.329  40.586  0.00  0.00     0.078 H 
ATOM    141  H   ASG d 304      12.236  31.192  45.012  0.00  0.00     0.040 H 
ATOM    142  H   ASG d 304      11.580  29.822  44.150  0.00  0.00     0.040 H 
ATOM    143  H   ASG d 304      10.701  30.510  45.494  0.00  0.00     0.040 H 
ATOM    144  H   ASG d 304      12.141  33.012  44.022  0.00  0.00     0.163 HD
ATOM    145  H   ASG d 304      12.206  36.439  40.766  0.00  0.00     0.093 H 
ATOM    146  H   ASG d 304      12.506  35.185  42.860  0.00  0.00     0.091 H 
ATOM    147  H   ASG d 304      10.481  35.328  44.232  0.00  0.00     0.132 H 
ATOM    148  H   ASG d 304       8.734  38.603  42.713  0.00  0.00     0.209 HD
ATOM    149  H   ASG d 304      10.211  33.500  41.858  0.00  0.00     0.084 H 
ENDROOT
TORSDOF 38
ENDMDL
MODEL 65
REMARK VINA RESULT:      -4.7      6.402      9.936
REMARK  0 active torsions:
REMARK  status: ('A' for Active; 'I' for Inactive)
REMARK       I    between atoms: C6_2  and  C5_74 
REMARK       I    between atoms: C1_3  and  O4_24 
REMARK       I    between atoms: O6_4  and  C6_26 
REMARK       I    between atoms: C5_5  and  C6_12 
REMARK       I    between atoms: C4_6  and  O4_22 
REMARK       I    between atoms: C6_8  and  C5_90 
REMARK       I    between atoms: C6_8  and  O6_83 
REMARK       I    between atoms: O3_11  and  C3_60 
REMARK       I    between atoms: O3_11  and  C1_29 
REMARK       I    between atoms: C5_13  and  C6_18 
REMARK       I    between atoms: O4_14  and  C4_88 
REMARK       I    between atoms: O4_14  and  S_15 
REMARK       I    between atoms: C6_16  and  C5_28 
REMARK       I    between atoms: S_17  and  O4_22 
REMARK       I    between atoms: C6_18  and  O6_66 
REMARK       I    between atoms: O4_20  and  C4_46 
REMARK       I    between atoms: O4_20  and  C1_61 
REMARK       I    between atoms: O4_21  and  C4_54 
REMARK       I    between atoms: O4_21  and  S_40 
REMARK       I    between atoms: O4_24  and  C4_35 
REMARK       I    between atoms: O3_25  and  C3_48 
REMARK       I    between atoms: C6_26  and  C5_50 
REMARK       I    between atoms: C2_27  and  O2_55 
REMARK       I    between atoms: O3_31  and  C3_37 
REMARK       I    between atoms: C2_32  and  N_72 
REMARK       I    between atoms: C7_33  and  C8_39 
REMARK       I    between atoms: C7_33  and  N_52 
REMARK       I    between atoms: C1_34  and  O4_86 
REMARK       I    between atoms: C3_36  and  O3_87 
REMARK       I    between atoms: C2_47  and  O2_85 
REMARK       I    between atoms: N_52  and  C2_71 
REMARK       I    between atoms: C3_53  and  O3_81 
REMARK       I    between atoms: C1_56  and  O3_81 
REMARK       I    between atoms: C7_57  and  C8_64 
REMARK       I    between atoms: C7_57  and  N_63 
REMARK       I    between atoms: C8_58  and  C7_73 
REMARK       I    between atoms: C1_59  and  O1_68 
REMARK       I    between atoms: N_63  and  C2_67 
REMARK       I    between atoms: C4_69  and  O4_86 
REMARK       I    between atoms: N_72  and  C7_73 
REMARK       I    between atoms: C2_77  and  O2_82 
ROOT
ATOM      1  OSB ASG d 302      14.984  39.164  52.093  0.00  0.00    -0.572 OA
ATOM      2  O6  ASG d 302      16.803  35.788  49.947  0.00  0.00    -0.398 OA
ATOM      3  O4  ASG d 302      15.271  37.294  53.707  0.00  0.00    -0.246 OA
ATOM      4  S   ASG d 302      14.552  38.690  53.393  0.00  0.00     0.252 S 
ATOM      5  C6  ASG d 302      16.142  36.481  51.002  0.00  0.00     0.043 C 
ATOM      6  C2  ASG d 302      15.801  34.808  54.935  0.00  0.00     0.087 C 
ATOM      7  C1  ASG d 302      16.826  34.314  53.925  0.00  0.00     0.154 C 
ATOM      8  O5  ASG d 302      17.020  35.259  52.848  0.00  0.00    -0.349 OA
ATOM      9  C5  ASG d 302      15.799  35.536  52.124  0.00  0.00     0.090 C 
ATOM     10  O7  ASG d 302      16.017  35.211  57.778  0.00  0.00    -0.274 OA
ATOM     11  C3  ASG d 302      14.499  35.046  54.191  0.00  0.00     0.094 C 
ATOM     12  C8  ASG d 302      15.482  32.920  58.259  0.00  0.00    -0.003 C 
ATOM     13  OSA ASG d 302      13.110  38.523  53.396  0.00  0.00    -0.572 OA
ATOM     14  N   ASG d 302      15.605  33.784  56.003  0.00  0.00    -0.349 N 
ATOM     15  C7  ASG d 302      15.734  34.102  57.352  0.00  0.00     0.214 C 
ATOM     16  OSC ASG d 302      14.926  39.654  54.403  0.00  0.00    -0.572 OA
ATOM     17  O3  ASG d 302      13.587  35.552  55.098  0.00  0.00    -0.348 OA
ATOM     18  C4  ASG d 302      14.744  36.100  53.098  0.00  0.00     0.114 C 
ATOM     19  H   ASG d 302      17.016  36.410  49.235  0.00  0.00     0.209 HD
ATOM     20  H   ASG d 302      15.243  36.921  50.625  0.00  0.00     0.078 H 
ATOM     21  H   ASG d 302      16.796  37.240  51.378  0.00  0.00     0.078 H 
ATOM     22  H   ASG d 302      16.134  35.712  55.400  0.00  0.00     0.084 H 
ATOM     23  H   ASG d 302      16.456  33.396  53.517  0.00  0.00     0.132 H 
ATOM     24  H   ASG d 302      15.370  34.653  51.698  0.00  0.00     0.090 H 
ATOM     25  H   ASG d 302      14.138  34.141  53.750  0.00  0.00     0.091 H 
ATOM     26  H   ASG d 302      15.595  33.222  59.279  0.00  0.00     0.040 H 
ATOM     27  H   ASG d 302      16.186  32.144  58.037  0.00  0.00     0.040 H 
ATOM     28  H   ASG d 302      14.489  32.556  58.103  0.00  0.00     0.040 H 
ATOM     29  H   ASG d 302      15.378  32.860  55.748  0.00  0.00     0.163 HD
ATOM     30  H   ASG d 302      13.833  36.327  52.584  0.00  0.00     0.093 H 
ATOM     31  C6  BDP d 303       9.849  34.138  52.611  0.00  0.00     0.206 C 
ATOM     32  O4  BDP d 303       8.403  33.904  55.196  0.00  0.00    -0.348 OA
ATOM     33  O3  BDP d 303       9.500  35.093  57.519  0.00  0.00    -0.390 OA
ATOM     34  C3  BDP d 303      10.309  34.552  56.462  0.00  0.00     0.092 C 
ATOM     35  O6B BDP d 303       9.345  35.233  52.288  0.00  0.00    -0.646 OA
ATOM     36  C4  BDP d 303       9.568  34.653  55.122  0.00  0.00     0.103 C 
ATOM     37  C2  BDP d 303      11.588  35.360  56.356  0.00  0.00     0.110 C 
ATOM     38  O6A BDP d 303       9.919  33.068  51.963  0.00  0.00    -0.646 OA
ATOM     39  C1  BDP d 303      12.433  34.798  55.225  0.00  0.00     0.160 C 
ATOM     40  C5  BDP d 303      10.476  34.077  54.002  0.00  0.00     0.152 C 
ATOM     41  O5  BDP d 303      11.718  34.833  53.961  0.00  0.00    -0.340 OA
ATOM     42  O2  BDP d 303      12.333  35.276  57.575  0.00  0.00    -0.388 OA
ATOM     43  H   BDP d 303       9.978  35.024  58.360  0.00  0.00     0.210 HD
ATOM     44  H   BDP d 303      10.522  33.526  56.681  0.00  0.00     0.091 H 
ATOM     45  H   BDP d 303       9.330  35.674  54.907  0.00  0.00     0.092 H 
ATOM     46  H   BDP d 303      11.339  36.383  56.167  0.00  0.00     0.094 H 
ATOM     47  H   BDP d 303      12.666  33.781  55.460  0.00  0.00     0.133 H 
ATOM     48  H   BDP d 303      10.632  33.047  54.243  0.00  0.00     0.104 H 
ATOM     49  H   BDP d 303      12.562  34.350  57.752  0.00  0.00     0.210 HD
ATOM     50  C1  ASG d 306       2.922  34.941  47.878  0.00  0.00     0.151 C 
ATOM     51  C4  ASG d 306       2.138  37.010  45.955  0.00  0.00     0.089 C 
ATOM     52  C6  ASG d 306       2.909  38.654  47.735  0.00  0.00     0.043 C 
ATOM     53  S   ASG d 306      -0.163  38.098  45.551  0.00  0.00     0.252 S 
ATOM     54  O4  ASG d 306       0.785  37.145  46.395  0.00  0.00    -0.249 OA
ATOM     55  OSB ASG d 306      -1.491  38.082  46.138  0.00  0.00    -0.572 OA
ATOM     56  OSA ASG d 306       0.364  39.451  45.587  0.00  0.00    -0.572 OA
ATOM     57  C3  ASG d 306       2.336  35.547  45.419  0.00  0.00    -0.014 C 
ATOM     58  C7  ASG d 306       1.331  32.178  46.736  0.00  0.00     0.214 C 
ATOM     59  N   ASG d 306       2.262  33.151  46.366  0.00  0.00    -0.352 N 
ATOM     60  C8  ASG d 306       1.740  30.791  46.309  0.00  0.00    -0.003 C 
ATOM     61  C2  ASG d 306       2.055  34.594  46.707  0.00  0.00     0.062 C 
ATOM     62  O5  ASG d 306       2.755  36.328  48.254  0.00  0.00    -0.349 OA
ATOM     63  O6  ASG d 306       3.697  38.822  48.913  0.00  0.00    -0.398 OA
ATOM     64  O7  ASG d 306       0.291  32.405  47.349  0.00  0.00    -0.274 OA
ATOM     65  OSC ASG d 306      -0.225  37.637  44.182  0.00  0.00    -0.572 OA
ATOM     66  C5  ASG d 306       3.074  37.259  47.174  0.00  0.00     0.088 C 
ATOM     67  H   ASG d 306       3.949  34.798  47.616  0.00  0.00     0.132 H 
ATOM     68  H   ASG d 306       2.365  37.711  45.179  0.00  0.00     0.089 H 
ATOM     69  H   ASG d 306       1.879  38.816  47.976  0.00  0.00     0.078 H 
ATOM     70  H   ASG d 306       3.236  39.361  47.001  0.00  0.00     0.078 H 
ATOM     71  H   ASG d 306       3.334  35.409  45.058  0.00  0.00     0.040 H 
ATOM     72  H   ASG d 306       1.684  35.324  44.600  0.00  0.00     0.040 H 
ATOM     73  H   ASG d 306       3.071  32.883  45.873  0.00  0.00     0.163 HD
ATOM     74  H   ASG d 306       2.676  30.839  45.792  0.00  0.00     0.040 H 
ATOM     75  H   ASG d 306       0.994  30.384  45.658  0.00  0.00     0.040 H 
ATOM     76  H   ASG d 306       1.839  30.167  47.172  0.00  0.00     0.040 H 
ATOM     77  H   ASG d 306       1.033  34.763  46.979  0.00  0.00     0.080 H 
ATOM     78  H   ASG d 306       3.411  38.186  49.587  0.00  0.00     0.209 HD
ATOM     79  H   ASG d 306       4.075  37.124  46.821  0.00  0.00     0.090 H 
ATOM     80  C5  BDP d 305       3.713  32.762  50.590  0.00  0.00     0.152 C 
ATOM     81  O6B BDP d 305       5.919  33.127  49.876  0.00  0.00    -0.646 OA
ATOM     82  C6  BDP d 305       4.885  32.465  49.665  0.00  0.00     0.206 C 
ATOM     83  O4  BDP d 305       2.576  34.111  48.941  0.00  0.00    -0.348 OA
ATOM     84  O3  BDP d 305       1.135  35.514  50.950  0.00  0.00    -0.390 OA
ATOM     85  C2  BDP d 305       2.419  34.388  52.623  0.00  0.00     0.110 C 
ATOM     86  C1  BDP d 305       3.183  33.095  52.947  0.00  0.00     0.160 C 
ATOM     87  C4  BDP d 305       2.999  34.092  50.255  0.00  0.00     0.103 C 
ATOM     88  O6A BDP d 305       4.657  31.587  48.798  0.00  0.00    -0.646 OA
ATOM     89  C3  BDP d 305       1.825  34.294  51.231  0.00  0.00     0.092 C 
ATOM     90  O2  BDP d 305       1.400  34.571  53.609  0.00  0.00    -0.388 OA
ATOM     91  O5  BDP d 305       4.224  32.841  51.956  0.00  0.00    -0.340 OA
ATOM     92  H   BDP d 305       2.995  31.978  50.469  0.00  0.00     0.104 H 
ATOM     93  H   BDP d 305       0.401  35.622  51.574  0.00  0.00     0.210 HD
ATOM     94  H   BDP d 305       3.079  35.230  52.641  0.00  0.00     0.094 H 
ATOM     95  H   BDP d 305       2.481  32.288  52.931  0.00  0.00     0.133 H 
ATOM     96  H   BDP d 305       3.688  34.903  50.371  0.00  0.00     0.092 H 
ATOM     97  H   BDP d 305       1.131  33.484  51.141  0.00  0.00     0.091 H 
ATOM     98  H   BDP d 305       0.799  33.811  53.598  0.00  0.00     0.210 HD
ATOM     99  O6B BDP d 301      18.563  30.554  55.040  0.00  0.00    -0.646 OA
ATOM    100  C6  BDP d 301      18.706  31.577  55.744  0.00  0.00     0.206 C 
ATOM    101  O6A BDP d 301      18.191  31.870  56.845  0.00  0.00    -0.646 OA
ATOM    102  O5  BDP d 301      20.884  31.978  54.796  0.00  0.00    -0.340 OA
ATOM    103  C5  BDP d 301      19.653  32.630  55.181  0.00  0.00     0.152 C 
ATOM    104  C3  BDP d 301      20.135  34.412  53.486  0.00  0.00     0.092 C 
ATOM    105  C1  BDP d 301      21.876  32.902  54.253  0.00  0.00     0.156 C 
ATOM    106  O1  BDP d 301      23.107  32.086  53.946  0.00  0.00    -0.368 OA
ATOM    107  C4  BDP d 301      19.071  33.411  54.003  0.00  0.00     0.103 C 
ATOM    108  C2  BDP d 301      21.368  33.636  53.047  0.00  0.00     0.110 C 
ATOM    109  O2  BDP d 301      22.394  34.511  52.584  0.00  0.00    -0.388 OA
ATOM    110  O4  BDP d 301      18.028  34.133  54.549  0.00  0.00    -0.348 OA
ATOM    111  O3  BDP d 301      19.620  35.137  52.368  0.00  0.00    -0.390 OA
ATOM    112  H   BDP d 301      19.825  33.355  55.949  0.00  0.00     0.104 H 
ATOM    113  H   BDP d 301      20.385  35.098  54.268  0.00  0.00     0.091 H 
ATOM    114  H   BDP d 301      22.102  33.669  54.964  0.00  0.00     0.133 H 
ATOM    115  H   BDP d 301      22.885  31.396  53.301  0.00  0.00     0.212 HD
ATOM    116  H   BDP d 301      18.769  32.775  53.198  0.00  0.00     0.092 H 
ATOM    117  H   BDP d 301      21.109  32.975  52.246  0.00  0.00     0.094 H 
ATOM    118  H   BDP d 301      22.644  35.121  53.296  0.00  0.00     0.210 HD
ATOM    119  H   BDP d 301      19.391  34.517  51.658  0.00  0.00     0.210 HD
ATOM    120  OSC ASG d 304       2.868  33.735  58.620  0.00  0.00    -0.572 OA
ATOM    121  O3  ASG d 304       3.779  33.189  54.223  0.00  0.00    -0.348 OA
ATOM    122  C5  ASG d 304       5.614  36.176  55.610  0.00  0.00     0.090 C 
ATOM    123  C6  ASG d 304       5.387  37.193  56.702  0.00  0.00     0.043 C 
ATOM    124  O4  ASG d 304       4.311  34.464  56.739  0.00  0.00    -0.246 OA
ATOM    125  C7  ASG d 304       7.198  31.330  53.839  0.00  0.00     0.214 C 
ATOM    126  C8  ASG d 304       7.444  30.528  52.581  0.00  0.00    -0.003 C 
ATOM    127  S   ASG d 304       2.885  34.582  57.445  0.00  0.00     0.252 S 
ATOM    128  OSB ASG d 304       2.638  35.959  57.834  0.00  0.00    -0.572 OA
ATOM    129  N   ASG d 304       6.480  32.493  53.602  0.00  0.00    -0.349 N 
ATOM    130  C4  ASG d 304       4.461  35.152  55.487  0.00  0.00     0.114 C 
ATOM    131  C3  ASG d 304       4.810  34.152  54.366  0.00  0.00     0.094 C 
ATOM    132  C1  ASG d 304       7.206  34.514  54.855  0.00  0.00     0.154 C 
ATOM    133  O7  ASG d 304       7.595  30.980  54.938  0.00  0.00    -0.274 OA
ATOM    134  O6  ASG d 304       6.216  38.340  56.506  0.00  0.00    -0.398 OA
ATOM    135  O5  ASG d 304       6.869  35.486  55.888  0.00  0.00    -0.349 OA
ATOM    136  C2  ASG d 304       6.115  33.449  54.700  0.00  0.00     0.087 C 
ATOM    137  OSA ASG d 304       1.847  34.159  56.520  0.00  0.00    -0.572 OA
ATOM    138  H   ASG d 304       5.653  36.693  54.675  0.00  0.00     0.090 H 
ATOM    139  H   ASG d 304       5.619  36.750  57.648  0.00  0.00     0.078 H 
ATOM    140  H   ASG d 304       4.363  37.500  56.678  0.00  0.00     0.078 H 
ATOM    141  H   ASG d 304       7.003  31.030  51.745  0.00  0.00     0.040 H 
ATOM    142  H   ASG d 304       7.006  29.558  52.685  0.00  0.00     0.040 H 
ATOM    143  H   ASG d 304       8.498  30.428  52.422  0.00  0.00     0.040 H 
ATOM    144  H   ASG d 304       6.199  32.698  52.680  0.00  0.00     0.163 HD
ATOM    145  H   ASG d 304       3.542  35.645  55.249  0.00  0.00     0.093 H 
ATOM    146  H   ASG d 304       4.913  34.689  53.445  0.00  0.00     0.091 H 
ATOM    147  H   ASG d 304       7.293  35.028  53.920  0.00  0.00     0.132 H 
ATOM    148  H   ASG d 304       7.148  38.072  56.526  0.00  0.00     0.209 HD
ATOM    149  H   ASG d 304       6.013  32.893  55.608  0.00  0.00     0.084 H 
ENDROOT
TORSDOF 38
ENDMDL
MODEL 66
REMARK VINA RESULT:      -4.7      6.347     17.468
REMARK  0 active torsions:
REMARK  status: ('A' for Active; 'I' for Inactive)
REMARK       I    between atoms: C6_2  and  C5_74 
REMARK       I    between atoms: C1_3  and  O4_24 
REMARK       I    between atoms: O6_4  and  C6_26 
REMARK       I    between atoms: C5_5  and  C6_12 
REMARK       I    between atoms: C4_6  and  O4_22 
REMARK       I    between atoms: C6_8  and  C5_90 
REMARK       I    between atoms: C6_8  and  O6_83 
REMARK       I    between atoms: O3_11  and  C3_60 
REMARK       I    between atoms: O3_11  and  C1_29 
REMARK       I    between atoms: C5_13  and  C6_18 
REMARK       I    between atoms: O4_14  and  C4_88 
REMARK       I    between atoms: O4_14  and  S_15 
REMARK       I    between atoms: C6_16  and  C5_28 
REMARK       I    between atoms: S_17  and  O4_22 
REMARK       I    between atoms: C6_18  and  O6_66 
REMARK       I    between atoms: O4_20  and  C4_46 
REMARK       I    between atoms: O4_20  and  C1_61 
REMARK       I    between atoms: O4_21  and  C4_54 
REMARK       I    between atoms: O4_21  and  S_40 
REMARK       I    between atoms: O4_24  and  C4_35 
REMARK       I    between atoms: O3_25  and  C3_48 
REMARK       I    between atoms: C6_26  and  C5_50 
REMARK       I    between atoms: C2_27  and  O2_55 
REMARK       I    between atoms: O3_31  and  C3_37 
REMARK       I    between atoms: C2_32  and  N_72 
REMARK       I    between atoms: C7_33  and  C8_39 
REMARK       I    between atoms: C7_33  and  N_52 
REMARK       I    between atoms: C1_34  and  O4_86 
REMARK       I    between atoms: C3_36  and  O3_87 
REMARK       I    between atoms: C2_47  and  O2_85 
REMARK       I    between atoms: N_52  and  C2_71 
REMARK       I    between atoms: C3_53  and  O3_81 
REMARK       I    between atoms: C1_56  and  O3_81 
REMARK       I    between atoms: C7_57  and  C8_64 
REMARK       I    between atoms: C7_57  and  N_63 
REMARK       I    between atoms: C8_58  and  C7_73 
REMARK       I    between atoms: C1_59  and  O1_68 
REMARK       I    between atoms: N_63  and  C2_67 
REMARK       I    between atoms: C4_69  and  O4_86 
REMARK       I    between atoms: N_72  and  C7_73 
REMARK       I    between atoms: C2_77  and  O2_82 
ROOT
ATOM      1  OSB ASG d 302       1.717  39.763  49.624  0.00  0.00    -0.572 OA
ATOM      2  O6  ASG d 302       3.726  38.520  53.330  0.00  0.00    -0.398 OA
ATOM      3  O4  ASG d 302       1.162  37.374  50.034  0.00  0.00    -0.246 OA
ATOM      4  S   ASG d 302       1.194  38.576  48.976  0.00  0.00     0.252 S 
ATOM      5  C6  ASG d 302       3.017  38.384  52.102  0.00  0.00     0.043 C 
ATOM      6  C2  ASG d 302       1.017  34.742  51.043  0.00  0.00     0.087 C 
ATOM      7  C1  ASG d 302       1.414  35.067  52.475  0.00  0.00     0.154 C 
ATOM      8  O5  ASG d 302       1.704  36.474  52.648  0.00  0.00    -0.349 OA
ATOM      9  C5  ASG d 302       2.774  36.930  51.788  0.00  0.00     0.090 C 
ATOM     10  O7  ASG d 302      -1.352  33.482  49.998  0.00  0.00    -0.274 OA
ATOM     11  C3  ASG d 302       2.161  35.166  50.140  0.00  0.00     0.094 C 
ATOM     12  C8  ASG d 302      -0.460  31.276  50.320  0.00  0.00    -0.003 C 
ATOM     13  OSA ASG d 302       2.035  38.228  47.846  0.00  0.00    -0.572 OA
ATOM     14  N   ASG d 302       0.767  33.276  50.905  0.00  0.00    -0.349 N 
ATOM     15  C7  ASG d 302      -0.425  32.785  50.379  0.00  0.00     0.214 C 
ATOM     16  OSC ASG d 302      -0.150  38.836  48.513  0.00  0.00    -0.572 OA
ATOM     17  O3  ASG d 302       1.774  34.925  48.836  0.00  0.00    -0.348 OA
ATOM     18  C4  ASG d 302       2.391  36.677  50.316  0.00  0.00     0.114 C 
ATOM     19  H   ASG d 302       3.873  39.460  53.515  0.00  0.00     0.209 HD
ATOM     20  H   ASG d 302       3.592  38.822  51.313  0.00  0.00     0.078 H 
ATOM     21  H   ASG d 302       2.073  38.880  52.191  0.00  0.00     0.078 H 
ATOM     22  H   ASG d 302       0.119  35.258  50.774  0.00  0.00     0.084 H 
ATOM     23  H   ASG d 302       2.295  34.503  52.699  0.00  0.00     0.132 H 
ATOM     24  H   ASG d 302       3.685  36.395  51.956  0.00  0.00     0.090 H 
ATOM     25  H   ASG d 302       3.056  34.632  50.379  0.00  0.00     0.091 H 
ATOM     26  H   ASG d 302      -1.394  30.956  49.909  0.00  0.00     0.040 H 
ATOM     27  H   ASG d 302      -0.350  30.877  51.308  0.00  0.00     0.040 H 
ATOM     28  H   ASG d 302       0.340  30.924  49.703  0.00  0.00     0.040 H 
ATOM     29  H   ASG d 302       1.462  32.641  51.194  0.00  0.00     0.163 HD
ATOM     30  H   ASG d 302       3.161  37.019  49.657  0.00  0.00     0.093 H 
ATOM     31  C6  BDP d 303       6.194  34.647  47.240  0.00  0.00     0.206 C 
ATOM     32  O4  BDP d 303       5.172  32.775  45.172  0.00  0.00    -0.348 OA
ATOM     33  O3  BDP d 303       2.383  32.576  44.726  0.00  0.00    -0.390 OA
ATOM     34  C3  BDP d 303       2.950  32.858  46.016  0.00  0.00     0.092 C 
ATOM     35  O6B BDP d 303       6.243  35.642  46.489  0.00  0.00    -0.646 OA
ATOM     36  C4  BDP d 303       4.288  33.594  45.858  0.00  0.00     0.103 C 
ATOM     37  C2  BDP d 303       2.004  33.760  46.785  0.00  0.00     0.110 C 
ATOM     38  O6A BDP d 303       7.079  34.161  47.981  0.00  0.00    -0.646 OA
ATOM     39  C1  BDP d 303       2.615  34.074  48.141  0.00  0.00     0.160 C 
ATOM     40  C5  BDP d 303       4.863  33.899  47.267  0.00  0.00     0.152 C 
ATOM     41  O5  BDP d 303       3.911  34.716  48.004  0.00  0.00    -0.340 OA
ATOM     42  O2  BDP d 303       0.746  33.108  46.984  0.00  0.00    -0.388 OA
ATOM     43  H   BDP d 303       1.540  32.111  44.839  0.00  0.00     0.210 HD
ATOM     44  H   BDP d 303       3.105  31.935  46.535  0.00  0.00     0.091 H 
ATOM     45  H   BDP d 303       4.146  34.507  45.318  0.00  0.00     0.092 H 
ATOM     46  H   BDP d 303       1.848  34.659  46.226  0.00  0.00     0.094 H 
ATOM     47  H   BDP d 303       2.743  33.151  48.667  0.00  0.00     0.133 H 
ATOM     48  H   BDP d 303       5.033  32.951  47.733  0.00  0.00     0.104 H 
ATOM     49  H   BDP d 303       0.881  32.292  47.491  0.00  0.00     0.210 HD
ATOM     50  C1  ASG d 306      13.043  36.972  42.915  0.00  0.00     0.151 C 
ATOM     51  C4  ASG d 306      14.009  39.625  42.125  0.00  0.00     0.089 C 
ATOM     52  C6  ASG d 306      11.602  40.055  41.424  0.00  0.00     0.043 C 
ATOM     53  S   ASG d 306      15.084  40.397  39.915  0.00  0.00     0.252 S 
ATOM     54  O4  ASG d 306      14.355  39.285  40.782  0.00  0.00    -0.249 OA
ATOM     55  OSB ASG d 306      15.373  39.855  38.599  0.00  0.00    -0.572 OA
ATOM     56  OSA ASG d 306      14.210  41.549  39.781  0.00  0.00    -0.572 OA
ATOM     57  C3  ASG d 306      14.907  38.775  43.094  0.00  0.00    -0.014 C 
ATOM     58  C7  ASG d 306      15.889  35.152  43.159  0.00  0.00     0.214 C 
ATOM     59  N   ASG d 306      15.254  36.287  43.670  0.00  0.00    -0.352 N 
ATOM     60  C8  ASG d 306      16.563  34.334  44.231  0.00  0.00    -0.003 C 
ATOM     61  C2  ASG d 306      14.512  37.230  42.774  0.00  0.00     0.062 C 
ATOM     62  O5  ASG d 306      12.278  37.856  42.063  0.00  0.00    -0.349 OA
ATOM     63  O6  ASG d 306      10.246  39.637  41.571  0.00  0.00    -0.398 OA
ATOM     64  O7  ASG d 306      15.902  34.835  41.973  0.00  0.00    -0.274 OA
ATOM     65  OSC ASG d 306      16.314  40.794  40.564  0.00  0.00    -0.572 OA
ATOM     66  C5  ASG d 306      12.509  39.270  42.347  0.00  0.00     0.088 C 
ATOM     67  H   ASG d 306      12.745  37.156  43.926  0.00  0.00     0.132 H 
ATOM     68  H   ASG d 306      14.163  40.667  42.314  0.00  0.00     0.089 H 
ATOM     69  H   ASG d 306      11.911  39.898  40.411  0.00  0.00     0.078 H 
ATOM     70  H   ASG d 306      11.670  41.093  41.677  0.00  0.00     0.078 H 
ATOM     71  H   ASG d 306      14.694  39.016  44.115  0.00  0.00     0.040 H 
ATOM     72  H   ASG d 306      15.950  38.965  42.950  0.00  0.00     0.040 H 
ATOM     73  H   ASG d 306      15.294  36.470  44.636  0.00  0.00     0.163 HD
ATOM     74  H   ASG d 306      16.420  34.804  45.182  0.00  0.00     0.040 H 
ATOM     75  H   ASG d 306      17.611  34.265  44.022  0.00  0.00     0.040 H 
ATOM     76  H   ASG d 306      16.138  33.352  44.251  0.00  0.00     0.040 H 
ATOM     77  H   ASG d 306      14.790  37.062  41.754  0.00  0.00     0.080 H 
ATOM     78  H   ASG d 306      10.171  38.697  41.344  0.00  0.00     0.209 HD
ATOM     79  H   ASG d 306      12.287  39.509  43.366  0.00  0.00     0.090 H 
ATOM     80  C5  BDP d 305      11.543  33.782  43.462  0.00  0.00     0.152 C 
ATOM     81  O6B BDP d 305      10.730  34.808  45.411  0.00  0.00    -0.646 OA
ATOM     82  C6  BDP d 305      11.715  34.241  44.903  0.00  0.00     0.206 C 
ATOM     83  O4  BDP d 305      12.797  35.645  42.575  0.00  0.00    -0.348 OA
ATOM     84  O3  BDP d 305      11.511  35.425  40.049  0.00  0.00    -0.390 OA
ATOM     85  C2  BDP d 305      10.066  33.751  40.958  0.00  0.00     0.110 C 
ATOM     86  C1  BDP d 305       9.960  32.633  42.006  0.00  0.00     0.160 C 
ATOM     87  C4  BDP d 305      11.614  34.944  42.444  0.00  0.00     0.103 C 
ATOM     88  O6A BDP d 305      12.841  33.990  45.399  0.00  0.00    -0.646 OA
ATOM     89  C3  BDP d 305      11.445  34.379  41.021  0.00  0.00     0.092 C 
ATOM     90  O2  BDP d 305       9.813  33.188  39.668  0.00  0.00    -0.388 OA
ATOM     91  O5  BDP d 305      10.234  33.144  43.345  0.00  0.00    -0.340 OA
ATOM     92  H   BDP d 305      12.344  33.111  43.234  0.00  0.00     0.104 H 
ATOM     93  H   BDP d 305      11.402  35.049  39.162  0.00  0.00     0.210 HD
ATOM     94  H   BDP d 305       9.347  34.518  41.151  0.00  0.00     0.094 H 
ATOM     95  H   BDP d 305      10.685  31.885  41.762  0.00  0.00     0.133 H 
ATOM     96  H   BDP d 305      10.821  35.635  42.638  0.00  0.00     0.092 H 
ATOM     97  H   BDP d 305      12.221  33.674  40.813  0.00  0.00     0.091 H 
ATOM     98  H   BDP d 305      10.462  32.490  39.486  0.00  0.00     0.210 HD
ATOM     99  O6B BDP d 301       1.237  31.646  55.057  0.00  0.00    -0.646 OA
ATOM    100  C6  BDP d 301       0.216  32.094  54.490  0.00  0.00     0.206 C 
ATOM    101  O6A BDP d 301      -0.438  31.628  53.531  0.00  0.00    -0.646 OA
ATOM    102  O5  BDP d 301      -0.425  33.278  56.488  0.00  0.00    -0.340 OA
ATOM    103  C5  BDP d 301      -0.319  33.405  55.052  0.00  0.00     0.152 C 
ATOM    104  C3  BDP d 301      -0.081  35.882  55.348  0.00  0.00     0.092 C 
ATOM    105  C1  BDP d 301      -0.946  34.481  57.133  0.00  0.00     0.156 C 
ATOM    106  O1  BDP d 301      -1.040  34.176  58.608  0.00  0.00    -0.368 OA
ATOM    107  C4  BDP d 301       0.530  34.622  54.685  0.00  0.00     0.103 C 
ATOM    108  C2  BDP d 301      -0.096  35.686  56.857  0.00  0.00     0.110 C 
ATOM    109  O2  BDP d 301      -0.673  36.808  57.521  0.00  0.00    -0.388 OA
ATOM    110  O4  BDP d 301       0.387  34.742  53.316  0.00  0.00    -0.348 OA
ATOM    111  O3  BDP d 301       0.712  37.030  55.037  0.00  0.00    -0.390 OA
ATOM    112  H   BDP d 301      -1.277  33.580  54.610  0.00  0.00     0.104 H 
ATOM    113  H   BDP d 301      -1.075  36.029  54.982  0.00  0.00     0.091 H 
ATOM    114  H   BDP d 301      -1.909  34.730  56.739  0.00  0.00     0.133 H 
ATOM    115  H   BDP d 301      -0.160  33.952  58.949  0.00  0.00     0.212 HD
ATOM    116  H   BDP d 301       1.548  34.521  54.997  0.00  0.00     0.092 H 
ATOM    117  H   BDP d 301       0.906  35.569  57.213  0.00  0.00     0.094 H 
ATOM    118  H   BDP d 301      -1.584  36.933  57.211  0.00  0.00     0.210 HD
ATOM    119  H   BDP d 301       1.615  36.898  55.368  0.00  0.00     0.210 HD
ATOM    120  OSC ASG d 304       5.702  29.875  39.366  0.00  0.00    -0.572 OA
ATOM    121  O3  ASG d 304       8.665  32.070  41.986  0.00  0.00    -0.348 OA
ATOM    122  C5  ASG d 304       5.415  33.967  41.761  0.00  0.00     0.090 C 
ATOM    123  C6  ASG d 304       4.311  34.135  40.746  0.00  0.00     0.043 C 
ATOM    124  O4  ASG d 304       6.002  31.748  40.965  0.00  0.00    -0.246 OA
ATOM    125  C7  ASG d 304       7.890  31.287  45.739  0.00  0.00     0.214 C 
ATOM    126  C8  ASG d 304       9.015  31.390  46.743  0.00  0.00    -0.003 C 
ATOM    127  S   ASG d 304       6.200  31.232  39.468  0.00  0.00     0.252 S 
ATOM    128  OSB ASG d 304       5.472  32.088  38.549  0.00  0.00    -0.572 OA
ATOM    129  N   ASG d 304       7.963  32.257  44.750  0.00  0.00    -0.349 N 
ATOM    130  C4  ASG d 304       6.551  33.039  41.272  0.00  0.00     0.114 C 
ATOM    131  C3  ASG d 304       7.604  32.920  42.393  0.00  0.00     0.094 C 
ATOM    132  C1  ASG d 304       5.809  33.286  44.052  0.00  0.00     0.154 C 
ATOM    133  O7  ASG d 304       7.017  30.437  45.804  0.00  0.00    -0.274 OA
ATOM    134  O6  ASG d 304       3.531  35.297  41.034  0.00  0.00    -0.398 OA
ATOM    135  O5  ASG d 304       4.826  33.435  42.986  0.00  0.00    -0.349 OA
ATOM    136  C2  ASG d 304       6.953  32.353  43.643  0.00  0.00     0.087 C 
ATOM    137  OSA ASG d 304       7.613  31.264  39.125  0.00  0.00    -0.572 OA
ATOM    138  H   ASG d 304       5.863  34.923  41.929  0.00  0.00     0.090 H 
ATOM    139  H   ASG d 304       3.678  33.273  40.769  0.00  0.00     0.078 H 
ATOM    140  H   ASG d 304       4.750  34.247  39.776  0.00  0.00     0.078 H 
ATOM    141  H   ASG d 304       9.654  32.207  46.481  0.00  0.00     0.040 H 
ATOM    142  H   ASG d 304       9.579  30.481  46.741  0.00  0.00     0.040 H 
ATOM    143  H   ASG d 304       8.608  31.554  47.719  0.00  0.00     0.040 H 
ATOM    144  H   ASG d 304       8.703  32.906  44.776  0.00  0.00     0.163 HD
ATOM    145  H   ASG d 304       7.013  33.439  40.393  0.00  0.00     0.093 H 
ATOM    146  H   ASG d 304       7.999  33.893  42.600  0.00  0.00     0.091 H 
ATOM    147  H   ASG d 304       6.233  34.247  44.261  0.00  0.00     0.132 H 
ATOM    148  H   ASG d 304       3.128  35.205  41.912  0.00  0.00     0.209 HD
ATOM    149  H   ASG d 304       6.575  31.371  43.450  0.00  0.00     0.084 H 
ENDROOT
TORSDOF 38
ENDMDL
MODEL 67
REMARK VINA RESULT:      -4.6      6.332      8.815
REMARK  0 active torsions:
REMARK  status: ('A' for Active; 'I' for Inactive)
REMARK       I    between atoms: C6_2  and  C5_74 
REMARK       I    between atoms: C1_3  and  O4_24 
REMARK       I    between atoms: O6_4  and  C6_26 
REMARK       I    between atoms: C5_5  and  C6_12 
REMARK       I    between atoms: C4_6  and  O4_22 
REMARK       I    between atoms: C6_8  and  C5_90 
REMARK       I    between atoms: C6_8  and  O6_83 
REMARK       I    between atoms: O3_11  and  C3_60 
REMARK       I    between atoms: O3_11  and  C1_29 
REMARK       I    between atoms: C5_13  and  C6_18 
REMARK       I    between atoms: O4_14  and  C4_88 
REMARK       I    between atoms: O4_14  and  S_15 
REMARK       I    between atoms: C6_16  and  C5_28 
REMARK       I    between atoms: S_17  and  O4_22 
REMARK       I    between atoms: C6_18  and  O6_66 
REMARK       I    between atoms: O4_20  and  C4_46 
REMARK       I    between atoms: O4_20  and  C1_61 
REMARK       I    between atoms: O4_21  and  C4_54 
REMARK       I    between atoms: O4_21  and  S_40 
REMARK       I    between atoms: O4_24  and  C4_35 
REMARK       I    between atoms: O3_25  and  C3_48 
REMARK       I    between atoms: C6_26  and  C5_50 
REMARK       I    between atoms: C2_27  and  O2_55 
REMARK       I    between atoms: O3_31  and  C3_37 
REMARK       I    between atoms: C2_32  and  N_72 
REMARK       I    between atoms: C7_33  and  C8_39 
REMARK       I    between atoms: C7_33  and  N_52 
REMARK       I    between atoms: C1_34  and  O4_86 
REMARK       I    between atoms: C3_36  and  O3_87 
REMARK       I    between atoms: C2_47  and  O2_85 
REMARK       I    between atoms: N_52  and  C2_71 
REMARK       I    between atoms: C3_53  and  O3_81 
REMARK       I    between atoms: C1_56  and  O3_81 
REMARK       I    between atoms: C7_57  and  C8_64 
REMARK       I    between atoms: C7_57  and  N_63 
REMARK       I    between atoms: C8_58  and  C7_73 
REMARK       I    between atoms: C1_59  and  O1_68 
REMARK       I    between atoms: N_63  and  C2_67 
REMARK       I    between atoms: C4_69  and  O4_86 
REMARK       I    between atoms: N_72  and  C7_73 
REMARK       I    between atoms: C2_77  and  O2_82 
ROOT
ATOM      1  OSB ASG d 302      15.411  39.625  43.870  0.00  0.00    -0.572 OA
ATOM      2  O6  ASG d 302      17.244  37.203  40.694  0.00  0.00    -0.398 OA
ATOM      3  O4  ASG d 302      16.046  37.429  44.850  0.00  0.00    -0.246 OA
ATOM      4  S   ASG d 302      15.178  38.765  45.014  0.00  0.00     0.252 S 
ATOM      5  C6  ASG d 302      16.657  37.498  41.958  0.00  0.00     0.043 C 
ATOM      6  C2  ASG d 302      16.927  34.779  45.263  0.00  0.00     0.087 C 
ATOM      7  C1  ASG d 302      17.864  34.703  44.066  0.00  0.00     0.154 C 
ATOM      8  O5  ASG d 302      17.848  35.925  43.292  0.00  0.00    -0.349 OA
ATOM      9  C5  ASG d 302      16.530  36.247  42.789  0.00  0.00     0.090 C 
ATOM     10  O7  ASG d 302      17.444  34.405  48.071  0.00  0.00    -0.274 OA
ATOM     11  C3  ASG d 302      15.531  35.061  44.738  0.00  0.00     0.094 C 
ATOM     12  C8  ASG d 302      17.167  32.025  47.922  0.00  0.00    -0.003 C 
ATOM     13  OSA ASG d 302      13.767  38.439  45.098  0.00  0.00    -0.572 OA
ATOM     14  N   ASG d 302      16.947  33.484  46.006  0.00  0.00    -0.349 N 
ATOM     15  C7  ASG d 302      17.208  33.432  47.373  0.00  0.00     0.214 C 
ATOM     16  OSC ASG d 302      15.587  39.449  46.220  0.00  0.00    -0.572 OA
ATOM     17  O3  ASG d 302      14.693  35.189  45.830  0.00  0.00    -0.348 OA
ATOM     18  C4  ASG d 302      15.554  36.396  43.974  0.00  0.00     0.114 C 
ATOM     19  H   ASG d 302      17.318  38.018  40.174  0.00  0.00     0.209 HD
ATOM     20  H   ASG d 302      15.685  37.918  41.805  0.00  0.00     0.078 H 
ATOM     21  H   ASG d 302      17.284  38.194  42.476  0.00  0.00     0.078 H 
ATOM     22  H   ASG d 302      17.235  35.552  45.935  0.00  0.00     0.084 H 
ATOM     23  H   ASG d 302      17.528  33.897  43.448  0.00  0.00     0.132 H 
ATOM     24  H   ASG d 302      16.131  35.473  42.169  0.00  0.00     0.090 H 
ATOM     25  H   ASG d 302      15.199  34.277  44.090  0.00  0.00     0.091 H 
ATOM     26  H   ASG d 302      17.373  32.045  48.971  0.00  0.00     0.040 H 
ATOM     27  H   ASG d 302      17.902  31.426  47.425  0.00  0.00     0.040 H 
ATOM     28  H   ASG d 302      16.196  31.606  47.758  0.00  0.00     0.040 H 
ATOM     29  H   ASG d 302      16.771  32.647  45.519  0.00  0.00     0.163 HD
ATOM     30  H   ASG d 302      14.572  36.649  43.630  0.00  0.00     0.093 H 
ATOM     31  C6  BDP d 303      10.821  34.094  43.387  0.00  0.00     0.206 C 
ATOM     32  O4  BDP d 303       9.716  32.993  45.915  0.00  0.00    -0.348 OA
ATOM     33  O3  BDP d 303      10.975  33.614  48.374  0.00  0.00    -0.390 OA
ATOM     34  C3  BDP d 303      11.697  33.482  47.138  0.00  0.00     0.092 C 
ATOM     35  O6B BDP d 303      10.191  35.170  43.437  0.00  0.00    -0.646 OA
ATOM     36  C4  BDP d 303      10.796  33.862  45.955  0.00  0.00     0.103 C 
ATOM     37  C2  BDP d 303      12.881  34.429  47.154  0.00  0.00     0.110 C 
ATOM     38  O6A BDP d 303      10.904  33.260  42.456  0.00  0.00    -0.646 OA
ATOM     39  C1  BDP d 303      13.631  34.302  45.838  0.00  0.00     0.160 C 
ATOM     40  C5  BDP d 303      11.611  33.725  44.640  0.00  0.00     0.152 C 
ATOM     41  O5  BDP d 303      12.771  34.601  44.706  0.00  0.00    -0.340 OA
ATOM     42  O2  BDP d 303      13.769  34.099  48.226  0.00  0.00    -0.388 OA
ATOM     43  H   BDP d 303      11.554  33.371  49.113  0.00  0.00     0.210 HD
ATOM     44  H   BDP d 303      12.021  32.467  47.035  0.00  0.00     0.091 H 
ATOM     45  H   BDP d 303      10.448  34.869  46.064  0.00  0.00     0.092 H 
ATOM     46  H   BDP d 303      12.525  35.429  47.289  0.00  0.00     0.094 H 
ATOM     47  H   BDP d 303      13.976  33.293  45.750  0.00  0.00     0.133 H 
ATOM     48  H   BDP d 303      11.882  32.693  44.562  0.00  0.00     0.104 H 
ATOM     49  H   BDP d 303      14.096  33.194  48.109  0.00  0.00     0.210 HD
ATOM     50  C1  ASG d 306       3.339  35.366  39.722  0.00  0.00     0.151 C 
ATOM     51  C4  ASG d 306       2.159  37.781  38.550  0.00  0.00     0.089 C 
ATOM     52  C6  ASG d 306       2.994  38.948  40.649  0.00  0.00     0.043 C 
ATOM     53  S   ASG d 306      -0.257  38.666  38.682  0.00  0.00     0.252 S 
ATOM     54  O4  ASG d 306       0.862  37.633  39.129  0.00  0.00    -0.249 OA
ATOM     55  OSB ASG d 306      -1.500  38.336  39.356  0.00  0.00    -0.572 OA
ATOM     56  OSA ASG d 306       0.153  40.007  39.055  0.00  0.00    -0.572 OA
ATOM     57  C3  ASG d 306       2.416  36.555  37.602  0.00  0.00    -0.014 C 
ATOM     58  C7  ASG d 306       1.865  32.861  37.985  0.00  0.00     0.214 C 
ATOM     59  N   ASG d 306       2.660  33.999  37.827  0.00  0.00    -0.352 N 
ATOM     60  C8  ASG d 306       2.337  31.702  37.144  0.00  0.00    -0.003 C 
ATOM     61  C2  ASG d 306       2.372  35.258  38.583  0.00  0.00     0.062 C 
ATOM     62  O5  ASG d 306       3.100  36.568  40.492  0.00  0.00    -0.349 OA
ATOM     63  O6  ASG d 306       3.898  38.875  41.750  0.00  0.00    -0.398 OA
ATOM     64  O7  ASG d 306       0.890  32.790  38.728  0.00  0.00    -0.274 OA
ATOM     65  OSC ASG d 306      -0.442  38.595  37.249  0.00  0.00    -0.572 OA
ATOM     66  C5  ASG d 306       3.209  37.790  39.700  0.00  0.00     0.088 C 
ATOM     67  H   ASG d 306       4.337  35.420  39.339  0.00  0.00     0.132 H 
ATOM     68  H   ASG d 306       2.232  38.690  37.990  0.00  0.00     0.089 H 
ATOM     69  H   ASG d 306       1.989  38.919  41.018  0.00  0.00     0.078 H 
ATOM     70  H   ASG d 306       3.169  39.863  40.122  0.00  0.00     0.078 H 
ATOM     71  H   ASG d 306       3.373  36.637  37.129  0.00  0.00     0.040 H 
ATOM     72  H   ASG d 306       1.694  36.493  36.815  0.00  0.00     0.040 H 
ATOM     73  H   ASG d 306       3.424  33.972  37.207  0.00  0.00     0.163 HD
ATOM     74  H   ASG d 306       3.198  31.998  36.581  0.00  0.00     0.040 H 
ATOM     75  H   ASG d 306       1.557  31.407  36.473  0.00  0.00     0.040 H 
ATOM     76  H   ASG d 306       2.591  30.880  37.779  0.00  0.00     0.040 H 
ATOM     77  H   ASG d 306       1.379  35.227  38.983  0.00  0.00     0.080 H 
ATOM     78  H   ASG d 306       3.749  38.049  42.237  0.00  0.00     0.209 HD
ATOM     79  H   ASG d 306       4.169  37.874  39.235  0.00  0.00     0.090 H 
ATOM     80  C5  BDP d 305       4.628  32.631  41.615  0.00  0.00     0.152 C 
ATOM     81  O6B BDP d 305       6.695  33.430  40.840  0.00  0.00    -0.646 OA
ATOM     82  C6  BDP d 305       5.704  32.738  40.543  0.00  0.00     0.206 C 
ATOM     83  O4  BDP d 305       3.194  34.242  40.530  0.00  0.00    -0.348 OA
ATOM     84  O3  BDP d 305       1.886  34.862  42.976  0.00  0.00    -0.390 OA
ATOM     85  C2  BDP d 305       3.451  33.474  44.136  0.00  0.00     0.110 C 
ATOM     86  C1  BDP d 305       4.354  32.239  44.007  0.00  0.00     0.160 C 
ATOM     87  C4  BDP d 305       3.769  33.911  41.740  0.00  0.00     0.103 C 
ATOM     88  O6A BDP d 305       5.450  32.112  39.485  0.00  0.00    -0.646 OA
ATOM     89  C3  BDP d 305       2.706  33.699  42.834  0.00  0.00     0.092 C 
ATOM     90  O2  BDP d 305       2.544  33.261  45.221  0.00  0.00    -0.388 OA
ATOM     91  O5  BDP d 305       5.289  32.389  42.895  0.00  0.00    -0.340 OA
ATOM     92  H   BDP d 305       3.970  31.833  41.339  0.00  0.00     0.104 H 
ATOM     93  H   BDP d 305       1.224  34.708  43.669  0.00  0.00     0.210 HD
ATOM     94  H   BDP d 305       4.033  34.349  44.335  0.00  0.00     0.094 H 
ATOM     95  H   BDP d 305       3.727  31.392  43.824  0.00  0.00     0.133 H 
ATOM     96  H   BDP d 305       4.395  34.732  42.021  0.00  0.00     0.092 H 
ATOM     97  H   BDP d 305       2.078  32.872  42.579  0.00  0.00     0.091 H 
ATOM     98  H   BDP d 305       2.012  32.468  45.046  0.00  0.00     0.210 HD
ATOM     99  O6B BDP d 301      20.034  31.008  43.898  0.00  0.00    -0.646 OA
ATOM    100  C6  BDP d 301      20.172  31.807  44.850  0.00  0.00     0.206 C 
ATOM    101  O6A BDP d 301      19.768  31.723  46.031  0.00  0.00    -0.646 OA
ATOM    102  O5  BDP d 301      22.180  32.701  43.865  0.00  0.00    -0.340 OA
ATOM    103  C5  BDP d 301      20.952  33.075  44.529  0.00  0.00     0.152 C 
ATOM    104  C3  BDP d 301      21.077  35.298  43.379  0.00  0.00     0.092 C 
ATOM    105  C1  BDP d 301      23.019  33.847  43.523  0.00  0.00     0.156 C 
ATOM    106  O1  BDP d 301      24.270  33.294  42.886  0.00  0.00    -0.368 OA
ATOM    107  C4  BDP d 301      20.171  34.078  43.681  0.00  0.00     0.103 C 
ATOM    108  C2  BDP d 301      22.311  34.821  42.627  0.00  0.00     0.110 C 
ATOM    109  O2  BDP d 301      23.197  35.902  42.345  0.00  0.00    -0.388 OA
ATOM    110  O4  BDP d 301      19.142  34.497  44.502  0.00  0.00    -0.348 OA
ATOM    111  O3  BDP d 301      20.373  36.239  42.566  0.00  0.00    -0.390 OA
ATOM    112  H   BDP d 301      21.152  33.576  45.453  0.00  0.00     0.104 H 
ATOM    113  H   BDP d 301      21.359  35.767  44.299  0.00  0.00     0.091 H 
ATOM    114  H   BDP d 301      23.261  34.409  44.400  0.00  0.00     0.133 H 
ATOM    115  H   BDP d 301      24.033  32.787  42.093  0.00  0.00     0.212 HD
ATOM    116  H   BDP d 301      19.831  33.658  42.758  0.00  0.00     0.092 H 
ATOM    117  H   BDP d 301      22.016  34.381  41.698  0.00  0.00     0.094 H 
ATOM    118  H   BDP d 301      23.476  36.316  43.176  0.00  0.00     0.210 HD
ATOM    119  H   BDP d 301      20.116  35.817  41.731  0.00  0.00     0.210 HD
ATOM    120  OSC ASG d 304       4.660  31.251  49.630  0.00  0.00    -0.572 OA
ATOM    121  O3  ASG d 304       5.087  32.046  45.198  0.00  0.00    -0.348 OA
ATOM    122  C5  ASG d 304       6.813  34.726  47.211  0.00  0.00     0.090 C 
ATOM    123  C6  ASG d 304       6.631  35.370  48.564  0.00  0.00     0.043 C 
ATOM    124  O4  ASG d 304       5.804  32.632  47.915  0.00  0.00    -0.246 OA
ATOM    125  C7  ASG d 304       8.582  30.771  43.993  0.00  0.00     0.214 C 
ATOM    126  C8  ASG d 304       8.745  30.380  42.542  0.00  0.00    -0.003 C 
ATOM    127  S   ASG d 304       4.466  32.385  48.750  0.00  0.00     0.252 S 
ATOM    128  OSB ASG d 304       4.150  33.564  49.537  0.00  0.00    -0.572 OA
ATOM    129  N   ASG d 304       7.745  31.864  44.163  0.00  0.00    -0.349 N 
ATOM    130  C4  ASG d 304       5.745  33.650  46.904  0.00  0.00     0.114 C 
ATOM    131  C3  ASG d 304       6.043  33.045  45.517  0.00  0.00     0.094 C 
ATOM    132  C1  ASG d 304       8.440  33.531  45.872  0.00  0.00     0.154 C 
ATOM    133  O7  ASG d 304       9.136  30.180  44.906  0.00  0.00    -0.274 OA
ATOM    134  O6  ASG d 304       7.330  36.614  48.630  0.00  0.00    -0.398 OA
ATOM    135  O5  ASG d 304       8.146  34.136  47.166  0.00  0.00    -0.349 OA
ATOM    136  C2  ASG d 304       7.433  32.432  45.517  0.00  0.00     0.087 C 
ATOM    137  OSA ASG d 304       3.365  32.117  47.839  0.00  0.00    -0.572 OA
ATOM    138  H   ASG d 304       6.697  35.482  46.463  0.00  0.00     0.090 H 
ATOM    139  H   ASG d 304       7.010  34.714  49.319  0.00  0.00     0.078 H 
ATOM    140  H   ASG d 304       5.589  35.552  48.721  0.00  0.00     0.078 H 
ATOM    141  H   ASG d 304       8.168  31.039  41.927  0.00  0.00     0.040 H 
ATOM    142  H   ASG d 304       8.407  29.375  42.403  0.00  0.00     0.040 H 
ATOM    143  H   ASG d 304       9.777  30.450  42.267  0.00  0.00     0.040 H 
ATOM    144  H   ASG d 304       7.341  32.281  43.368  0.00  0.00     0.163 HD
ATOM    145  H   ASG d 304       4.765  34.081  46.900  0.00  0.00     0.093 H 
ATOM    146  H   ASG d 304       5.990  33.822  44.783  0.00  0.00     0.091 H 
ATOM    147  H   ASG d 304       8.372  34.289  45.119  0.00  0.00     0.132 H 
ATOM    148  H   ASG d 304       8.278  36.460  48.489  0.00  0.00     0.209 HD
ATOM    149  H   ASG d 304       7.487  31.639  46.234  0.00  0.00     0.084 H 
ENDROOT
TORSDOF 38
ENDMDL
MODEL 68
REMARK VINA RESULT:      -4.6      6.293     11.907
REMARK  0 active torsions:
REMARK  status: ('A' for Active; 'I' for Inactive)
REMARK       I    between atoms: C6_2  and  C5_74 
REMARK       I    between atoms: C1_3  and  O4_24 
REMARK       I    between atoms: O6_4  and  C6_26 
REMARK       I    between atoms: C5_5  and  C6_12 
REMARK       I    between atoms: C4_6  and  O4_22 
REMARK       I    between atoms: C6_8  and  C5_90 
REMARK       I    between atoms: C6_8  and  O6_83 
REMARK       I    between atoms: O3_11  and  C3_60 
REMARK       I    between atoms: O3_11  and  C1_29 
REMARK       I    between atoms: C5_13  and  C6_18 
REMARK       I    between atoms: O4_14  and  C4_88 
REMARK       I    between atoms: O4_14  and  S_15 
REMARK       I    between atoms: C6_16  and  C5_28 
REMARK       I    between atoms: S_17  and  O4_22 
REMARK       I    between atoms: C6_18  and  O6_66 
REMARK       I    between atoms: O4_20  and  C4_46 
REMARK       I    between atoms: O4_20  and  C1_61 
REMARK       I    between atoms: O4_21  and  C4_54 
REMARK       I    between atoms: O4_21  and  S_40 
REMARK       I    between atoms: O4_24  and  C4_35 
REMARK       I    between atoms: O3_25  and  C3_48 
REMARK       I    between atoms: C6_26  and  C5_50 
REMARK       I    between atoms: C2_27  and  O2_55 
REMARK       I    between atoms: O3_31  and  C3_37 
REMARK       I    between atoms: C2_32  and  N_72 
REMARK       I    between atoms: C7_33  and  C8_39 
REMARK       I    between atoms: C7_33  and  N_52 
REMARK       I    between atoms: C1_34  and  O4_86 
REMARK       I    between atoms: C3_36  and  O3_87 
REMARK       I    between atoms: C2_47  and  O2_85 
REMARK       I    between atoms: N_52  and  C2_71 
REMARK       I    between atoms: C3_53  and  O3_81 
REMARK       I    between atoms: C1_56  and  O3_81 
REMARK       I    between atoms: C7_57  and  C8_64 
REMARK       I    between atoms: C7_57  and  N_63 
REMARK       I    between atoms: C8_58  and  C7_73 
REMARK       I    between atoms: C1_59  and  O1_68 
REMARK       I    between atoms: N_63  and  C2_67 
REMARK       I    between atoms: C4_69  and  O4_86 
REMARK       I    between atoms: N_72  and  C7_73 
REMARK       I    between atoms: C2_77  and  O2_82 
ROOT
ATOM      1  OSB ASG d 302      13.974  39.502  50.484  0.00  0.00    -0.572 OA
ATOM      2  O6  ASG d 302      16.662  36.058  50.015  0.00  0.00    -0.398 OA
ATOM      3  O4  ASG d 302      13.354  37.806  52.194  0.00  0.00    -0.246 OA
ATOM      4  S   ASG d 302      12.913  39.123  51.397  0.00  0.00     0.252 S 
ATOM      5  C6  ASG d 302      15.539  36.804  50.474  0.00  0.00     0.043 C 
ATOM      6  C2  ASG d 302      13.146  35.477  53.775  0.00  0.00     0.087 C 
ATOM      7  C1  ASG d 302      14.553  34.954  53.526  0.00  0.00     0.154 C 
ATOM      8  O5  ASG d 302      15.293  35.808  52.624  0.00  0.00    -0.349 OA
ATOM      9  C5  ASG d 302      14.649  35.945  51.336  0.00  0.00     0.090 C 
ATOM     10  O7  ASG d 302      11.805  36.147  56.234  0.00  0.00    -0.274 OA
ATOM     11  C3  ASG d 302      12.445  35.570  52.432  0.00  0.00     0.094 C 
ATOM     12  C8  ASG d 302      11.098  33.882  56.600  0.00  0.00    -0.003 C 
ATOM     13  OSA ASG d 302      11.694  38.873  50.649  0.00  0.00    -0.572 OA
ATOM     14  N   ASG d 302      12.409  34.543  54.679  0.00  0.00    -0.349 N 
ATOM     15  C7  ASG d 302      11.795  34.990  55.846  0.00  0.00     0.214 C 
ATOM     16  OSC ASG d 302      12.687  40.194  52.340  0.00  0.00    -0.572 OA
ATOM     17  O3  ASG d 302      11.188  36.101  52.654  0.00  0.00    -0.348 OA
ATOM     18  C4  ASG d 302      13.236  36.533  51.530  0.00  0.00     0.114 C 
ATOM     19  H   ASG d 302      17.223  36.624  49.464  0.00  0.00     0.209 HD
ATOM     20  H   ASG d 302      14.981  37.154  49.632  0.00  0.00     0.078 H 
ATOM     21  H   ASG d 302      15.889  37.631  51.057  0.00  0.00     0.078 H 
ATOM     22  H   ASG d 302      13.177  36.437  54.245  0.00  0.00     0.084 H 
ATOM     23  H   ASG d 302      14.460  33.983  53.086  0.00  0.00     0.132 H 
ATOM     24  H   ASG d 302      14.516  35.004  50.845  0.00  0.00     0.090 H 
ATOM     25  H   ASG d 302      12.377  34.608  51.967  0.00  0.00     0.091 H 
ATOM     26  H   ASG d 302      10.647  34.281  57.484  0.00  0.00     0.040 H 
ATOM     27  H   ASG d 302      11.812  33.132  56.872  0.00  0.00     0.040 H 
ATOM     28  H   ASG d 302      10.343  33.448  55.980  0.00  0.00     0.040 H 
ATOM     29  H   ASG d 302      12.355  33.589  54.443  0.00  0.00     0.163 HD
ATOM     30  H   ASG d 302      12.742  36.658  50.590  0.00  0.00     0.093 H 
ATOM     31  C6  BDP d 303       9.365  34.251  48.728  0.00  0.00     0.206 C 
ATOM     32  O4  BDP d 303       6.760  34.168  50.153  0.00  0.00    -0.348 OA
ATOM     33  O3  BDP d 303       6.440  35.625  52.559  0.00  0.00    -0.390 OA
ATOM     34  C3  BDP d 303       7.690  35.038  52.162  0.00  0.00     0.092 C 
ATOM     35  O6B BDP d 303       9.111  35.280  48.070  0.00  0.00    -0.646 OA
ATOM     36  C4  BDP d 303       7.782  34.974  50.630  0.00  0.00     0.103 C 
ATOM     37  C2  BDP d 303       8.826  35.907  52.666  0.00  0.00     0.110 C 
ATOM     38  O6A BDP d 303       9.772  33.133  48.336  0.00  0.00    -0.646 OA
ATOM     39  C1  BDP d 303      10.147  35.296  52.227  0.00  0.00     0.160 C 
ATOM     40  C5  BDP d 303       9.149  34.353  50.236  0.00  0.00     0.152 C 
ATOM     41  O5  BDP d 303      10.220  35.173  50.781  0.00  0.00    -0.340 OA
ATOM     42  O2  BDP d 303       8.802  35.978  54.095  0.00  0.00    -0.388 OA
ATOM     43  H   BDP d 303       6.394  35.660  53.527  0.00  0.00     0.210 HD
ATOM     44  H   BDP d 303       7.754  34.051  52.569  0.00  0.00     0.091 H 
ATOM     45  H   BDP d 303       7.695  35.956  50.213  0.00  0.00     0.092 H 
ATOM     46  H   BDP d 303       8.717  36.893  52.265  0.00  0.00     0.094 H 
ATOM     47  H   BDP d 303      10.219  34.320  52.658  0.00  0.00     0.133 H 
ATOM     48  H   BDP d 303       9.153  33.360  50.633  0.00  0.00     0.104 H 
ATOM     49  H   BDP d 303       8.902  35.087  54.465  0.00  0.00     0.210 HD
ATOM     50  C1  ASG d 306       6.050  34.214  40.980  0.00  0.00     0.151 C 
ATOM     51  C4  ASG d 306       6.415  36.050  38.724  0.00  0.00     0.089 C 
ATOM     52  C6  ASG d 306       6.112  37.891  40.452  0.00  0.00     0.043 C 
ATOM     53  S   ASG d 306       4.688  36.961  37.043  0.00  0.00     0.252 S 
ATOM     54  O4  ASG d 306       5.038  36.145  38.359  0.00  0.00    -0.249 OA
ATOM     55  OSB ASG d 306       3.252  36.920  36.830  0.00  0.00    -0.572 OA
ATOM     56  OSA ASG d 306       5.113  38.339  37.207  0.00  0.00    -0.572 OA
ATOM     57  C3  ASG d 306       6.872  34.559  38.537  0.00  0.00    -0.014 C 
ATOM     58  C7  ASG d 306       5.320  31.270  39.472  0.00  0.00     0.214 C 
ATOM     59  N   ASG d 306       6.304  32.259  39.552  0.00  0.00    -0.352 N 
ATOM     60  C8  ASG d 306       5.896  29.877  39.480  0.00  0.00    -0.003 C 
ATOM     61  C2  ASG d 306       5.945  33.712  39.572  0.00  0.00     0.062 C 
ATOM     62  O5  ASG d 306       5.706  35.617  41.056  0.00  0.00    -0.349 OA
ATOM     63  O6  ASG d 306       6.146  38.211  41.842  0.00  0.00    -0.398 OA
ATOM     64  O7  ASG d 306       4.114  31.491  39.409  0.00  0.00    -0.274 OA
ATOM     65  OSC ASG d 306       5.369  36.374  35.910  0.00  0.00    -0.572 OA
ATOM     66  C5  ASG d 306       6.553  36.463  40.219  0.00  0.00     0.088 C 
ATOM     67  H   ASG d 306       7.058  34.108  41.322  0.00  0.00     0.132 H 
ATOM     68  H   ASG d 306       7.022  36.691  38.118  0.00  0.00     0.089 H 
ATOM     69  H   ASG d 306       5.113  38.014  40.088  0.00  0.00     0.078 H 
ATOM     70  H   ASG d 306       6.780  38.547  39.933  0.00  0.00     0.078 H 
ATOM     71  H   ASG d 306       7.907  34.448  38.781  0.00  0.00     0.040 H 
ATOM     72  H   ASG d 306       6.760  34.225  37.527  0.00  0.00     0.040 H 
ATOM     73  H   ASG d 306       7.252  31.995  39.597  0.00  0.00     0.163 HD
ATOM     74  H   ASG d 306       6.963  29.932  39.540  0.00  0.00     0.040 H 
ATOM     75  H   ASG d 306       5.615  29.369  38.581  0.00  0.00     0.040 H 
ATOM     76  H   ASG d 306       5.519  29.340  40.325  0.00  0.00     0.040 H 
ATOM     77  H   ASG d 306       4.937  33.844  39.239  0.00  0.00     0.080 H 
ATOM     78  H   ASG d 306       5.544  37.623  42.324  0.00  0.00     0.209 HD
ATOM     79  H   ASG d 306       7.588  36.356  40.471  0.00  0.00     0.090 H 
ATOM     80  C5  BDP d 305       5.267  32.340  43.912  0.00  0.00     0.152 C 
ATOM     81  O6B BDP d 305       7.513  32.767  44.448  0.00  0.00    -0.646 OA
ATOM     82  C6  BDP d 305       6.753  32.030  43.792  0.00  0.00     0.206 C 
ATOM     83  O4  BDP d 305       5.189  33.465  41.777  0.00  0.00    -0.348 OA
ATOM     84  O3  BDP d 305       2.895  34.957  42.545  0.00  0.00    -0.390 OA
ATOM     85  C2  BDP d 305       3.084  34.065  44.755  0.00  0.00     0.110 C 
ATOM     86  C1  BDP d 305       3.557  32.854  45.573  0.00  0.00     0.160 C 
ATOM     87  C4  BDP d 305       4.843  33.590  43.108  0.00  0.00     0.103 C 
ATOM     88  O6A BDP d 305       7.026  31.065  43.037  0.00  0.00    -0.646 OA
ATOM     89  C3  BDP d 305       3.328  33.810  43.280  0.00  0.00     0.092 C 
ATOM     90  O2  BDP d 305       1.695  34.277  45.021  0.00  0.00    -0.388 OA
ATOM     91  O5  BDP d 305       4.967  32.572  45.323  0.00  0.00    -0.340 OA
ATOM     92  H   BDP d 305       4.727  31.507  43.513  0.00  0.00     0.104 H 
ATOM     93  H   BDP d 305       1.940  35.078  42.667  0.00  0.00     0.210 HD
ATOM     94  H   BDP d 305       3.631  34.942  45.030  0.00  0.00     0.094 H 
ATOM     95  H   BDP d 305       2.973  32.008  45.274  0.00  0.00     0.133 H 
ATOM     96  H   BDP d 305       5.361  34.447  43.484  0.00  0.00     0.092 H 
ATOM     97  H   BDP d 305       2.791  32.957  42.923  0.00  0.00     0.091 H 
ATOM     98  H   BDP d 305       1.194  33.484  44.774  0.00  0.00     0.210 HD
ATOM     99  O6B BDP d 301      15.426  31.419  55.793  0.00  0.00    -0.646 OA
ATOM    100  C6  BDP d 301      15.169  32.509  56.350  0.00  0.00     0.206 C 
ATOM    101  O6A BDP d 301      14.144  32.869  56.969  0.00  0.00    -0.646 OA
ATOM    102  O5  BDP d 301      17.516  32.949  56.670  0.00  0.00    -0.340 OA
ATOM    103  C5  BDP d 301      16.269  33.559  56.268  0.00  0.00     0.152 C 
ATOM    104  C3  BDP d 301      17.582  35.206  54.909  0.00  0.00     0.092 C 
ATOM    105  C1  BDP d 301      18.643  33.877  56.643  0.00  0.00     0.156 C 
ATOM    106  O1  BDP d 301      19.848  33.109  57.129  0.00  0.00    -0.368 OA
ATOM    107  C4  BDP d 301      16.408  34.195  54.885  0.00  0.00     0.103 C 
ATOM    108  C2  BDP d 301      18.859  34.467  55.280  0.00  0.00     0.110 C 
ATOM    109  O2  BDP d 301      19.973  35.355  55.344  0.00  0.00    -0.388 OA
ATOM    110  O4  BDP d 301      15.233  34.901  54.710  0.00  0.00    -0.348 OA
ATOM    111  O3  BDP d 301      17.745  35.795  53.618  0.00  0.00    -0.390 OA
ATOM    112  H   BDP d 301      16.002  34.360  56.926  0.00  0.00     0.104 H 
ATOM    113  H   BDP d 301      17.374  35.973  55.625  0.00  0.00     0.091 H 
ATOM    114  H   BDP d 301      18.452  34.717  57.277  0.00  0.00     0.133 H 
ATOM    115  H   BDP d 301      20.007  32.352  56.544  0.00  0.00     0.212 HD
ATOM    116  H   BDP d 301      16.585  33.472  54.117  0.00  0.00     0.092 H 
ATOM    117  H   BDP d 301      19.070  33.722  54.542  0.00  0.00     0.094 H 
ATOM    118  H   BDP d 301      19.802  36.041  56.009  0.00  0.00     0.210 HD
ATOM    119  H   BDP d 301      17.933  35.101  52.967  0.00  0.00     0.210 HD
ATOM    120  OSC ASG d 304       0.251  33.985  50.100  0.00  0.00    -0.572 OA
ATOM    121  O3  ASG d 304       3.376  33.098  46.952  0.00  0.00    -0.348 OA
ATOM    122  C5  ASG d 304       4.180  36.301  48.771  0.00  0.00     0.090 C 
ATOM    123  C6  ASG d 304       3.402  37.397  49.457  0.00  0.00     0.043 C 
ATOM    124  O4  ASG d 304       2.477  34.625  49.210  0.00  0.00    -0.246 OA
ATOM    125  C7  ASG d 304       6.471  31.415  48.650  0.00  0.00     0.214 C 
ATOM    126  C8  ASG d 304       7.354  30.518  47.812  0.00  0.00    -0.003 C 
ATOM    127  S   ASG d 304       0.894  34.722  49.031  0.00  0.00     0.252 S 
ATOM    128  OSB ASG d 304       0.476  36.112  49.077  0.00  0.00    -0.572 OA
ATOM    129  N   ASG d 304       5.991  32.508  47.943  0.00  0.00    -0.349 N 
ATOM    130  C4  ASG d 304       3.274  35.204  48.165  0.00  0.00     0.114 C 
ATOM    131  C3  ASG d 304       4.170  34.129  47.517  0.00  0.00     0.094 C 
ATOM    132  C1  ASG d 304       5.931  34.673  49.164  0.00  0.00     0.154 C 
ATOM    133  O7  ASG d 304       6.219  31.190  49.823  0.00  0.00    -0.274 OA
ATOM    134  O6  ASG d 304       4.207  38.568  49.610  0.00  0.00    -0.398 OA
ATOM    135  O5  ASG d 304       5.092  35.713  49.747  0.00  0.00    -0.349 OA
ATOM    136  C2  ASG d 304       5.094  33.536  48.568  0.00  0.00     0.087 C 
ATOM    137  OSA ASG d 304       0.514  34.156  47.747  0.00  0.00    -0.572 OA
ATOM    138  H   ASG d 304       4.714  36.732  47.951  0.00  0.00     0.090 H 
ATOM    139  H   ASG d 304       3.092  37.056  50.423  0.00  0.00     0.078 H 
ATOM    140  H   ASG d 304       2.550  37.640  48.859  0.00  0.00     0.078 H 
ATOM    141  H   ASG d 304       7.429  30.916  46.821  0.00  0.00     0.040 H 
ATOM    142  H   ASG d 304       6.929  29.537  47.771  0.00  0.00     0.040 H 
ATOM    143  H   ASG d 304       8.329  30.466  48.250  0.00  0.00     0.040 H 
ATOM    144  H   ASG d 304       6.247  32.611  46.998  0.00  0.00     0.163 HD
ATOM    145  H   ASG d 304       2.624  35.619  47.422  0.00  0.00     0.093 H 
ATOM    146  H   ASG d 304       4.750  34.585  46.741  0.00  0.00     0.091 H 
ATOM    147  H   ASG d 304       6.505  35.104  48.370  0.00  0.00     0.132 H 
ATOM    148  H   ASG d 304       4.984  38.358  50.152  0.00  0.00     0.209 HD
ATOM    149  H   ASG d 304       4.522  33.060  49.336  0.00  0.00     0.084 H 
ENDROOT
TORSDOF 38
ENDMDL
MODEL 69
REMARK VINA RESULT:      -4.6      4.466      6.904
REMARK  0 active torsions:
REMARK  status: ('A' for Active; 'I' for Inactive)
REMARK       I    between atoms: C6_2  and  C5_74 
REMARK       I    between atoms: C1_3  and  O4_24 
REMARK       I    between atoms: O6_4  and  C6_26 
REMARK       I    between atoms: C5_5  and  C6_12 
REMARK       I    between atoms: C4_6  and  O4_22 
REMARK       I    between atoms: C6_8  and  C5_90 
REMARK       I    between atoms: C6_8  and  O6_83 
REMARK       I    between atoms: O3_11  and  C3_60 
REMARK       I    between atoms: O3_11  and  C1_29 
REMARK       I    between atoms: C5_13  and  C6_18 
REMARK       I    between atoms: O4_14  and  C4_88 
REMARK       I    between atoms: O4_14  and  S_15 
REMARK       I    between atoms: C6_16  and  C5_28 
REMARK       I    between atoms: S_17  and  O4_22 
REMARK       I    between atoms: C6_18  and  O6_66 
REMARK       I    between atoms: O4_20  and  C4_46 
REMARK       I    between atoms: O4_20  and  C1_61 
REMARK       I    between atoms: O4_21  and  C4_54 
REMARK       I    between atoms: O4_21  and  S_40 
REMARK       I    between atoms: O4_24  and  C4_35 
REMARK       I    between atoms: O3_25  and  C3_48 
REMARK       I    between atoms: C6_26  and  C5_50 
REMARK       I    between atoms: C2_27  and  O2_55 
REMARK       I    between atoms: O3_31  and  C3_37 
REMARK       I    between atoms: C2_32  and  N_72 
REMARK       I    between atoms: C7_33  and  C8_39 
REMARK       I    between atoms: C7_33  and  N_52 
REMARK       I    between atoms: C1_34  and  O4_86 
REMARK       I    between atoms: C3_36  and  O3_87 
REMARK       I    between atoms: C2_47  and  O2_85 
REMARK       I    between atoms: N_52  and  C2_71 
REMARK       I    between atoms: C3_53  and  O3_81 
REMARK       I    between atoms: C1_56  and  O3_81 
REMARK       I    between atoms: C7_57  and  C8_64 
REMARK       I    between atoms: C7_57  and  N_63 
REMARK       I    between atoms: C8_58  and  C7_73 
REMARK       I    between atoms: C1_59  and  O1_68 
REMARK       I    between atoms: N_63  and  C2_67 
REMARK       I    between atoms: C4_69  and  O4_86 
REMARK       I    between atoms: N_72  and  C7_73 
REMARK       I    between atoms: C2_77  and  O2_82 
ROOT
ATOM      1  OSB ASG d 302      15.037  38.690  47.102  0.00  0.00    -0.572 OA
ATOM      2  O6  ASG d 302      13.207  37.412  43.316  0.00  0.00    -0.398 OA
ATOM      3  O4  ASG d 302      15.128  36.206  47.005  0.00  0.00    -0.246 OA
ATOM      4  S   ASG d 302      15.235  37.513  47.926  0.00  0.00     0.252 S 
ATOM      5  C6  ASG d 302      13.743  37.293  44.631  0.00  0.00     0.043 C 
ATOM      6  C2  ASG d 302      14.831  33.492  46.289  0.00  0.00     0.087 C 
ATOM      7  C1  ASG d 302      14.659  33.710  44.793  0.00  0.00     0.154 C 
ATOM      8  O5  ASG d 302      14.684  35.113  44.447  0.00  0.00    -0.349 OA
ATOM      9  C5  ASG d 302      13.648  35.869  45.116  0.00  0.00     0.090 C 
ATOM     10  O7  ASG d 302      16.770  31.937  47.744  0.00  0.00    -0.274 OA
ATOM     11  C3  ASG d 302      13.713  34.236  46.995  0.00  0.00     0.094 C 
ATOM     12  C8  ASG d 302      15.481  29.921  47.533  0.00  0.00    -0.003 C 
ATOM     13  OSA ASG d 302      14.228  37.474  48.970  0.00  0.00    -0.572 OA
ATOM     14  N   ASG d 302      14.759  32.033  46.602  0.00  0.00    -0.349 N 
ATOM     15  C7  ASG d 302      15.763  31.390  47.320  0.00  0.00     0.214 C 
ATOM     16  OSC ASG d 302      16.549  37.563  48.525  0.00  0.00    -0.572 OA
ATOM     17  O3  ASG d 302      13.906  34.087  48.355  0.00  0.00    -0.348 OA
ATOM     18  C4  ASG d 302      13.818  35.730  46.642  0.00  0.00     0.114 C 
ATOM     19  H   ASG d 302      13.276  38.333  43.021  0.00  0.00     0.209 HD
ATOM     20  H   ASG d 302      13.192  37.927  45.294  0.00  0.00     0.078 H 
ATOM     21  H   ASG d 302      14.773  37.583  44.611  0.00  0.00     0.078 H 
ATOM     22  H   ASG d 302      15.783  33.854  46.616  0.00  0.00     0.084 H 
ATOM     23  H   ASG d 302      13.709  33.302  44.518  0.00  0.00     0.132 H 
ATOM     24  H   ASG d 302      12.668  35.504  44.889  0.00  0.00     0.090 H 
ATOM     25  H   ASG d 302      12.755  33.860  46.700  0.00  0.00     0.091 H 
ATOM     26  H   ASG d 302      16.282  29.481  48.088  0.00  0.00     0.040 H 
ATOM     27  H   ASG d 302      15.394  29.434  46.584  0.00  0.00     0.040 H 
ATOM     28  H   ASG d 302      14.567  29.809  48.077  0.00  0.00     0.040 H 
ATOM     29  H   ASG d 302      13.982  31.514  46.294  0.00  0.00     0.163 HD
ATOM     30  H   ASG d 302      13.070  36.292  47.162  0.00  0.00     0.093 H 
ATOM     31  C6  BDP d 303       9.383  34.865  49.403  0.00  0.00     0.206 C 
ATOM     32  O4  BDP d 303       9.778  33.098  51.759  0.00  0.00    -0.348 OA
ATOM     33  O3  BDP d 303      12.406  32.422  52.569  0.00  0.00    -0.390 OA
ATOM     34  C3  BDP d 303      12.045  32.647  51.196  0.00  0.00     0.092 C 
ATOM     35  O6B BDP d 303       9.462  35.935  50.040  0.00  0.00    -0.646 OA
ATOM     36  C4  BDP d 303      10.878  33.641  51.112  0.00  0.00     0.103 C 
ATOM     37  C2  BDP d 303      13.230  33.249  50.467  0.00  0.00     0.110 C 
ATOM     38  O6A BDP d 303       8.498  34.471  48.609  0.00  0.00    -0.646 OA
ATOM     39  C1  BDP d 303      12.840  33.506  49.020  0.00  0.00     0.160 C 
ATOM     40  C5  BDP d 303      10.526  33.876  49.618  0.00  0.00     0.152 C 
ATOM     41  O5  BDP d 303      11.697  34.397  48.929  0.00  0.00    -0.340 OA
ATOM     42  O2  BDP d 303      14.341  32.347  50.492  0.00  0.00    -0.388 OA
ATOM     43  H   BDP d 303      13.143  31.793  52.609  0.00  0.00     0.210 HD
ATOM     44  H   BDP d 303      11.758  31.715  50.756  0.00  0.00     0.091 H 
ATOM     45  H   BDP d 303      11.148  34.569  51.571  0.00  0.00     0.092 H 
ATOM     46  H   BDP d 303      13.510  34.163  50.948  0.00  0.00     0.094 H 
ATOM     47  H   BDP d 303      12.580  32.568  48.576  0.00  0.00     0.133 H 
ATOM     48  H   BDP d 303      10.214  32.928  49.231  0.00  0.00     0.104 H 
ATOM     49  H   BDP d 303      14.095  31.517  50.056  0.00  0.00     0.210 HD
ATOM     50  C1  ASG d 306       2.750  38.978  52.582  0.00  0.00     0.151 C 
ATOM     51  C4  ASG d 306       2.275  41.844  52.976  0.00  0.00     0.089 C 
ATOM     52  C6  ASG d 306       4.633  41.886  53.927  0.00  0.00     0.043 C 
ATOM     53  S   ASG d 306       1.159  43.075  54.947  0.00  0.00     0.252 S 
ATOM     54  O4  ASG d 306       1.729  41.745  54.293  0.00  0.00    -0.249 OA
ATOM     55  OSB ASG d 306       0.631  42.764  56.263  0.00  0.00    -0.572 OA
ATOM     56  OSA ASG d 306       2.233  44.044  55.074  0.00  0.00    -0.572 OA
ATOM     57  C3  ASG d 306       1.325  41.072  51.992  0.00  0.00    -0.014 C 
ATOM     58  C7  ASG d 306      -0.369  37.726  52.165  0.00  0.00     0.214 C 
ATOM     59  N   ASG d 306       0.535  38.646  51.628  0.00  0.00    -0.352 N 
ATOM     60  C8  ASG d 306      -1.083  36.927  51.104  0.00  0.00    -0.003 C 
ATOM     61  C2  ASG d 306       1.359  39.531  52.511  0.00  0.00     0.062 C 
ATOM     62  O5  ASG d 306       3.589  39.796  53.431  0.00  0.00    -0.349 OA
ATOM     63  O6  ASG d 306       5.882  41.199  53.994  0.00  0.00    -0.398 OA
ATOM     64  O7  ASG d 306      -0.569  37.565  53.366  0.00  0.00    -0.274 OA
ATOM     65  OSC ASG d 306       0.111  43.618  54.113  0.00  0.00    -0.572 OA
ATOM     66  C5  ASG d 306       3.684  41.183  52.982  0.00  0.00     0.088 C 
ATOM     67  H   ASG d 306       3.182  38.976  51.603  0.00  0.00     0.132 H 
ATOM     68  H   ASG d 306       2.359  42.866  52.667  0.00  0.00     0.089 H 
ATOM     69  H   ASG d 306       4.196  41.916  54.904  0.00  0.00     0.078 H 
ATOM     70  H   ASG d 306       4.806  42.878  53.566  0.00  0.00     0.078 H 
ATOM     71  H   ASG d 306       1.687  41.139  50.988  0.00  0.00     0.040 H 
ATOM     72  H   ASG d 306       0.334  41.475  51.985  0.00  0.00     0.040 H 
ATOM     73  H   ASG d 306       0.633  38.713  50.651  0.00  0.00     0.163 HD
ATOM     74  H   ASG d 306      -0.749  37.241  50.137  0.00  0.00     0.040 H 
ATOM     75  H   ASG d 306      -2.138  37.088  51.186  0.00  0.00     0.040 H 
ATOM     76  H   ASG d 306      -0.870  35.887  51.236  0.00  0.00     0.040 H 
ATOM     77  H   ASG d 306       0.949  39.545  53.500  0.00  0.00     0.080 H 
ATOM     78  H   ASG d 306       5.738  40.297  54.321  0.00  0.00     0.209 HD
ATOM     79  H   ASG d 306       4.054  41.247  51.979  0.00  0.00     0.090 H 
ATOM     80  C5  BDP d 305       3.610  35.517  52.548  0.00  0.00     0.152 C 
ATOM     81  O6B BDP d 305       4.813  36.120  50.624  0.00  0.00    -0.646 OA
ATOM     82  C6  BDP d 305       3.685  35.820  51.058  0.00  0.00     0.206 C 
ATOM     83  O4  BDP d 305       2.682  37.681  53.081  0.00  0.00    -0.348 OA
ATOM     84  O3  BDP d 305       3.628  37.529  55.757  0.00  0.00    -0.390 OA
ATOM     85  C2  BDP d 305       4.783  35.509  55.208  0.00  0.00     0.110 C 
ATOM     86  C1  BDP d 305       4.765  34.271  54.299  0.00  0.00     0.160 C 
ATOM     87  C4  BDP d 305       3.675  36.787  53.428  0.00  0.00     0.103 C 
ATOM     88  O6A BDP d 305       2.589  35.732  50.452  0.00  0.00    -0.646 OA
ATOM     89  C3  BDP d 305       3.577  36.378  54.910  0.00  0.00     0.092 C 
ATOM     90  O2  BDP d 305       4.781  35.070  56.569  0.00  0.00    -0.388 OA
ATOM     91  O5  BDP d 305       4.741  34.658  52.891  0.00  0.00    -0.340 OA
ATOM     92  H   BDP d 305       2.668  35.046  52.739  0.00  0.00     0.104 H 
ATOM     93  H   BDP d 305       3.565  37.250  56.685  0.00  0.00     0.210 HD
ATOM     94  H   BDP d 305       5.660  36.094  55.031  0.00  0.00     0.094 H 
ATOM     95  H   BDP d 305       3.880  33.713  54.523  0.00  0.00     0.133 H 
ATOM     96  H   BDP d 305       4.609  37.283  53.267  0.00  0.00     0.092 H 
ATOM     97  H   BDP d 305       2.655  35.867  55.089  0.00  0.00     0.091 H 
ATOM     98  H   BDP d 305       3.987  34.539  56.737  0.00  0.00     0.210 HD
ATOM     99  O6B BDP d 301      14.393  30.028  42.608  0.00  0.00    -0.646 OA
ATOM    100  C6  BDP d 301      15.421  30.337  43.251  0.00  0.00     0.206 C 
ATOM    101  O6A BDP d 301      15.862  29.875  44.326  0.00  0.00    -0.646 OA
ATOM    102  O5  BDP d 301      16.494  31.121  41.241  0.00  0.00    -0.340 OA
ATOM    103  C5  BDP d 301      16.269  31.441  42.633  0.00  0.00     0.152 C 
ATOM    104  C3  BDP d 301      16.577  33.862  42.064  0.00  0.00     0.092 C 
ATOM    105  C1  BDP d 301      17.314  32.112  40.550  0.00  0.00     0.156 C 
ATOM    106  O1  BDP d 301      17.495  31.616  39.136  0.00  0.00    -0.368 OA
ATOM    107  C4  BDP d 301      15.655  32.834  42.767  0.00  0.00     0.103 C 
ATOM    108  C2  BDP d 301      16.706  33.484  40.596  0.00  0.00     0.110 C 
ATOM    109  O2  BDP d 301      17.568  34.383  39.902  0.00  0.00    -0.388 OA
ATOM    110  O4  BDP d 301      15.678  33.092  44.124  0.00  0.00    -0.348 OA
ATOM    111  O3  BDP d 301      16.010  35.171  42.157  0.00  0.00    -0.390 OA
ATOM    112  H   BDP d 301      17.192  31.481  43.172  0.00  0.00     0.104 H 
ATOM    113  H   BDP d 301      17.537  33.859  42.536  0.00  0.00     0.091 H 
ATOM    114  H   BDP d 301      18.262  32.217  41.035  0.00  0.00     0.133 H 
ATOM    115  H   BDP d 301      16.627  31.526  38.712  0.00  0.00     0.212 HD
ATOM    116  H   BDP d 301      14.676  32.894  42.342  0.00  0.00     0.092 H 
ATOM    117  H   BDP d 301      15.744  33.519  40.130  0.00  0.00     0.094 H 
ATOM    118  H   BDP d 301      18.448  34.367  40.309  0.00  0.00     0.210 HD
ATOM    119  H   BDP d 301      15.138  35.176  41.731  0.00  0.00     0.210 HD
ATOM    120  OSC ASG d 304       8.069  31.090  57.713  0.00  0.00    -0.572 OA
ATOM    121  O3  ASG d 304       5.907  33.476  54.536  0.00  0.00    -0.348 OA
ATOM    122  C5  ASG d 304       9.437  34.724  54.977  0.00  0.00     0.090 C 
ATOM    123  C6  ASG d 304      10.441  34.799  56.101  0.00  0.00     0.043 C 
ATOM    124  O4  ASG d 304       8.327  32.775  55.910  0.00  0.00    -0.246 OA
ATOM    125  C7  ASG d 304       6.886  32.104  51.007  0.00  0.00     0.214 C 
ATOM    126  C8  ASG d 304       5.916  32.298  49.864  0.00  0.00    -0.003 C 
ATOM    127  S   ASG d 304       7.874  32.494  57.414  0.00  0.00     0.252 S 
ATOM    128  OSB ASG d 304       8.665  33.300  58.328  0.00  0.00    -0.572 OA
ATOM    129  N   ASG d 304       6.913  33.184  51.877  0.00  0.00    -0.349 N 
ATOM    130  C4  ASG d 304       8.090  34.100  55.410  0.00  0.00     0.114 C 
ATOM    131  C3  ASG d 304       7.156  34.049  54.183  0.00  0.00     0.094 C 
ATOM    132  C1  ASG d 304       9.149  33.856  52.734  0.00  0.00     0.154 C 
ATOM    133  O7  ASG d 304       7.568  31.100  51.137  0.00  0.00    -0.274 OA
ATOM    134  O6  ASG d 304      11.469  35.744  55.799  0.00  0.00    -0.398 OA
ATOM    135  O5  ASG d 304      10.026  33.943  53.895  0.00  0.00    -0.349 OA
ATOM    136  C2  ASG d 304       7.801  33.218  53.087  0.00  0.00     0.087 C 
ATOM    137  OSA ASG d 304       6.471  32.839  57.573  0.00  0.00    -0.572 OA
ATOM    138  H   ASG d 304       9.215  35.721  54.660  0.00  0.00     0.090 H 
ATOM    139  H   ASG d 304      10.882  33.835  56.243  0.00  0.00     0.078 H 
ATOM    140  H   ASG d 304       9.938  35.112  56.992  0.00  0.00     0.078 H 
ATOM    141  H   ASG d 304       5.435  33.249  49.962  0.00  0.00     0.040 H 
ATOM    142  H   ASG d 304       5.179  31.523  49.886  0.00  0.00     0.040 H 
ATOM    143  H   ASG d 304       6.446  32.260  48.936  0.00  0.00     0.040 H 
ATOM    144  H   ASG d 304       6.329  33.955  51.694  0.00  0.00     0.163 HD
ATOM    145  H   ASG d 304       7.632  34.686  56.180  0.00  0.00     0.093 H 
ATOM    146  H   ASG d 304       6.992  35.047  53.832  0.00  0.00     0.091 H 
ATOM    147  H   ASG d 304       8.955  34.848  52.379  0.00  0.00     0.132 H 
ATOM    148  H   ASG d 304      11.933  35.470  54.992  0.00  0.00     0.209 HD
ATOM    149  H   ASG d 304       7.948  32.213  53.423  0.00  0.00     0.084 H 
ENDROOT
TORSDOF 38
ENDMDL
MODEL 70
REMARK VINA RESULT:      -4.5      4.754     16.225
REMARK  0 active torsions:
REMARK  status: ('A' for Active; 'I' for Inactive)
REMARK       I    between atoms: C6_2  and  C5_74 
REMARK       I    between atoms: C1_3  and  O4_24 
REMARK       I    between atoms: O6_4  and  C6_26 
REMARK       I    between atoms: C5_5  and  C6_12 
REMARK       I    between atoms: C4_6  and  O4_22 
REMARK       I    between atoms: C6_8  and  C5_90 
REMARK       I    between atoms: C6_8  and  O6_83 
REMARK       I    between atoms: O3_11  and  C3_60 
REMARK       I    between atoms: O3_11  and  C1_29 
REMARK       I    between atoms: C5_13  and  C6_18 
REMARK       I    between atoms: O4_14  and  C4_88 
REMARK       I    between atoms: O4_14  and  S_15 
REMARK       I    between atoms: C6_16  and  C5_28 
REMARK       I    between atoms: S_17  and  O4_22 
REMARK       I    between atoms: C6_18  and  O6_66 
REMARK       I    between atoms: O4_20  and  C4_46 
REMARK       I    between atoms: O4_20  and  C1_61 
REMARK       I    between atoms: O4_21  and  C4_54 
REMARK       I    between atoms: O4_21  and  S_40 
REMARK       I    between atoms: O4_24  and  C4_35 
REMARK       I    between atoms: O3_25  and  C3_48 
REMARK       I    between atoms: C6_26  and  C5_50 
REMARK       I    between atoms: C2_27  and  O2_55 
REMARK       I    between atoms: O3_31  and  C3_37 
REMARK       I    between atoms: C2_32  and  N_72 
REMARK       I    between atoms: C7_33  and  C8_39 
REMARK       I    between atoms: C7_33  and  N_52 
REMARK       I    between atoms: C1_34  and  O4_86 
REMARK       I    between atoms: C3_36  and  O3_87 
REMARK       I    between atoms: C2_47  and  O2_85 
REMARK       I    between atoms: N_52  and  C2_71 
REMARK       I    between atoms: C3_53  and  O3_81 
REMARK       I    between atoms: C1_56  and  O3_81 
REMARK       I    between atoms: C7_57  and  C8_64 
REMARK       I    between atoms: C7_57  and  N_63 
REMARK       I    between atoms: C8_58  and  C7_73 
REMARK       I    between atoms: C1_59  and  O1_68 
REMARK       I    between atoms: N_63  and  C2_67 
REMARK       I    between atoms: C4_69  and  O4_86 
REMARK       I    between atoms: N_72  and  C7_73 
REMARK       I    between atoms: C2_77  and  O2_82 
ROOT
ATOM      1  OSB ASG d 302       6.439  41.031  52.131  0.00  0.00    -0.572 OA
ATOM      2  O6  ASG d 302       6.297  38.955  56.002  0.00  0.00    -0.398 OA
ATOM      3  O4  ASG d 302       4.883  39.104  51.911  0.00  0.00    -0.246 OA
ATOM      4  S   ASG d 302       5.768  40.200  51.150  0.00  0.00     0.252 S 
ATOM      5  C6  ASG d 302       6.092  39.166  54.608  0.00  0.00     0.043 C 
ATOM      6  C2  ASG d 302       3.359  36.766  52.338  0.00  0.00     0.087 C 
ATOM      7  C1  ASG d 302       3.300  36.854  53.856  0.00  0.00     0.154 C 
ATOM      8  O5  ASG d 302       4.034  37.994  54.358  0.00  0.00    -0.349 OA
ATOM      9  C5  ASG d 302       5.430  37.966  53.981  0.00  0.00     0.090 C 
ATOM     10  O7  ASG d 302       1.245  36.673  50.385  0.00  0.00    -0.274 OA
ATOM     11  C3  ASG d 302       4.821  36.679  51.938  0.00  0.00     0.094 C 
ATOM     12  C8  ASG d 302       1.015  34.290  50.579  0.00  0.00    -0.003 C 
ATOM     13  OSA ASG d 302       6.753  39.551  50.305  0.00  0.00    -0.572 OA
ATOM     14  N   ASG d 302       2.623  35.554  51.870  0.00  0.00    -0.349 N 
ATOM     15  C7  ASG d 302       1.616  35.636  50.912  0.00  0.00     0.214 C 
ATOM     16  OSC ASG d 302       4.903  41.024  50.336  0.00  0.00    -0.572 OA
ATOM     17  O3  ASG d 302       4.875  36.660  50.557  0.00  0.00    -0.348 OA
ATOM     18  C4  ASG d 302       5.544  37.939  52.443  0.00  0.00     0.114 C 
ATOM     19  H   ASG d 302       6.722  39.735  56.388  0.00  0.00     0.209 HD
ATOM     20  H   ASG d 302       7.037  39.334  54.135  0.00  0.00     0.078 H 
ATOM     21  H   ASG d 302       5.457  40.018  54.478  0.00  0.00     0.078 H 
ATOM     22  H   ASG d 302       2.902  37.624  51.892  0.00  0.00     0.084 H 
ATOM     23  H   ASG d 302       3.740  35.960  54.245  0.00  0.00     0.132 H 
ATOM     24  H   ASG d 302       5.929  37.088  54.333  0.00  0.00     0.090 H 
ATOM     25  H   ASG d 302       5.280  35.805  52.351  0.00  0.00     0.091 H 
ATOM     26  H   ASG d 302       0.251  34.414  49.841  0.00  0.00     0.040 H 
ATOM     27  H   ASG d 302       0.592  33.860  51.462  0.00  0.00     0.040 H 
ATOM     28  H   ASG d 302       1.777  33.644  50.197  0.00  0.00     0.040 H 
ATOM     29  H   ASG d 302       2.855  34.675  52.248  0.00  0.00     0.163 HD
ATOM     30  H   ASG d 302       6.569  37.932  52.136  0.00  0.00     0.093 H 
ATOM     31  C6  BDP d 303       9.080  34.546  50.435  0.00  0.00     0.206 C 
ATOM     32  O4  BDP d 303       8.236  33.346  47.851  0.00  0.00    -0.348 OA
ATOM     33  O3  BDP d 303       5.965  34.377  46.510  0.00  0.00    -0.390 OA
ATOM     34  C3  BDP d 303       6.085  34.356  47.942  0.00  0.00     0.092 C 
ATOM     35  O6B BDP d 303       9.786  35.441  49.928  0.00  0.00    -0.646 OA
ATOM     36  C4  BDP d 303       7.561  34.449  48.353  0.00  0.00     0.103 C 
ATOM     37  C2  BDP d 303       5.360  35.558  48.515  0.00  0.00     0.110 C 
ATOM     38  O6A BDP d 303       9.366  33.709  51.321  0.00  0.00    -0.646 OA
ATOM     39  C1  BDP d 303       5.504  35.546  50.028  0.00  0.00     0.160 C 
ATOM     40  C5  BDP d 303       7.652  34.442  49.902  0.00  0.00     0.152 C 
ATOM     41  O5  BDP d 303       6.900  35.572  50.428  0.00  0.00    -0.340 OA
ATOM     42  O2  BDP d 303       3.969  35.507  48.183  0.00  0.00    -0.388 OA
ATOM     43  H   BDP d 303       5.029  34.318  46.264  0.00  0.00     0.210 HD
ATOM     44  H   BDP d 303       5.664  33.445  48.311  0.00  0.00     0.091 H 
ATOM     45  H   BDP d 303       7.996  35.347  47.967  0.00  0.00     0.092 H 
ATOM     46  H   BDP d 303       5.785  36.451  48.105  0.00  0.00     0.094 H 
ATOM     47  H   BDP d 303       5.058  34.646  50.395  0.00  0.00     0.133 H 
ATOM     48  H   BDP d 303       7.254  33.502  50.222  0.00  0.00     0.104 H 
ATOM     49  H   BDP d 303       3.577  34.700  48.554  0.00  0.00     0.210 HD
ATOM     50  C1  ASG d 306      17.352  33.803  49.009  0.00  0.00     0.151 C 
ATOM     51  C4  ASG d 306      19.497  35.801  49.052  0.00  0.00     0.089 C 
ATOM     52  C6  ASG d 306      17.890  37.242  47.708  0.00  0.00     0.043 C 
ATOM     53  S   ASG d 306      21.514  36.089  47.475  0.00  0.00     0.252 S 
ATOM     54  O4  ASG d 306      20.146  35.378  47.852  0.00  0.00    -0.249 OA
ATOM     55  OSB ASG d 306      22.025  35.507  46.247  0.00  0.00    -0.572 OA
ATOM     56  OSA ASG d 306      21.277  37.508  47.276  0.00  0.00    -0.572 OA
ATOM     57  C3  ASG d 306      19.569  34.625  50.091  0.00  0.00    -0.014 C 
ATOM     58  C7  ASG d 306      18.952  30.931  49.822  0.00  0.00     0.214 C 
ATOM     59  N   ASG d 306      18.675  32.216  50.296  0.00  0.00    -0.352 N 
ATOM     60  C8  ASG d 306      18.809  29.876  50.891  0.00  0.00    -0.003 C 
ATOM     61  C2  ASG d 306      18.746  33.408  49.393  0.00  0.00     0.062 C 
ATOM     62  O5  ASG d 306      17.364  34.951  48.128  0.00  0.00    -0.349 OA
ATOM     63  O6  ASG d 306      16.527  37.444  47.337  0.00  0.00    -0.398 OA
ATOM     64  O7  ASG d 306      19.271  30.668  48.667  0.00  0.00    -0.274 OA
ATOM     65  OSC ASG d 306      22.472  35.902  48.542  0.00  0.00    -0.572 OA
ATOM     66  C5  ASG d 306      18.011  36.121  48.716  0.00  0.00     0.088 C 
ATOM     67  H   ASG d 306      16.804  34.073  49.887  0.00  0.00     0.132 H 
ATOM     68  H   ASG d 306      19.968  36.671  49.462  0.00  0.00     0.089 H 
ATOM     69  H   ASG d 306      18.458  36.992  46.835  0.00  0.00     0.078 H 
ATOM     70  H   ASG d 306      18.262  38.143  48.149  0.00  0.00     0.078 H 
ATOM     71  H   ASG d 306      19.111  34.908  51.015  0.00  0.00     0.040 H 
ATOM     72  H   ASG d 306      20.577  34.351  50.323  0.00  0.00     0.040 H 
ATOM     73  H   ASG d 306      18.429  32.340  51.241  0.00  0.00     0.163 HD
ATOM     74  H   ASG d 306      18.526  30.339  51.813  0.00  0.00     0.040 H 
ATOM     75  H   ASG d 306      19.742  29.369  51.018  0.00  0.00     0.040 H 
ATOM     76  H   ASG d 306      18.058  29.173  50.599  0.00  0.00     0.040 H 
ATOM     77  H   ASG d 306      19.286  33.161  48.502  0.00  0.00     0.080 H 
ATOM     78  H   ASG d 306      16.177  36.633  46.935  0.00  0.00     0.209 HD
ATOM     79  H   ASG d 306      17.545  36.407  49.637  0.00  0.00     0.090 H 
ATOM     80  C5  BDP d 305      14.634  31.557  48.473  0.00  0.00     0.152 C 
ATOM     81  O6B BDP d 305      13.639  32.785  50.210  0.00  0.00    -0.646 OA
ATOM     82  C6  BDP d 305      14.434  31.861  49.951  0.00  0.00     0.206 C 
ATOM     83  O4  BDP d 305      16.747  32.720  48.378  0.00  0.00    -0.348 OA
ATOM     84  O3  BDP d 305      16.496  33.136  45.577  0.00  0.00    -0.390 OA
ATOM     85  C2  BDP d 305      14.288  32.224  45.665  0.00  0.00     0.110 C 
ATOM     86  C1  BDP d 305      13.377  31.236  46.408  0.00  0.00     0.160 C 
ATOM     87  C4  BDP d 305      15.521  32.599  47.754  0.00  0.00     0.103 C 
ATOM     88  O6A BDP d 305      15.105  31.139  50.728  0.00  0.00    -0.646 OA
ATOM     89  C3  BDP d 305      15.675  32.197  46.275  0.00  0.00     0.092 C 
ATOM     90  O2  BDP d 305      14.323  31.857  44.283  0.00  0.00    -0.388 OA
ATOM     91  O5  BDP d 305      13.321  31.547  47.833  0.00  0.00    -0.340 OA
ATOM     92  H   BDP d 305      15.130  30.612  48.398  0.00  0.00     0.104 H 
ATOM     93  H   BDP d 305      16.580  32.865  44.649  0.00  0.00     0.210 HD
ATOM     94  H   BDP d 305      13.911  33.221  45.751  0.00  0.00     0.094 H 
ATOM     95  H   BDP d 305      13.784  30.255  46.280  0.00  0.00     0.133 H 
ATOM     96  H   BDP d 305      15.052  33.559  47.804  0.00  0.00     0.092 H 
ATOM     97  H   BDP d 305      16.129  31.231  46.204  0.00  0.00     0.091 H 
ATOM     98  H   BDP d 305      14.663  30.952  44.198  0.00  0.00     0.210 HD
ATOM     99  O6B BDP d 301       0.867  33.780  55.595  0.00  0.00    -0.646 OA
ATOM    100  C6  BDP d 301       0.387  34.637  54.821  0.00  0.00     0.206 C 
ATOM    101  O6A BDP d 301       0.002  34.521  53.637  0.00  0.00    -0.646 OA
ATOM    102  O5  BDP d 301      -0.418  35.933  56.686  0.00  0.00    -0.340 OA
ATOM    103  C5  BDP d 301       0.245  36.037  55.406  0.00  0.00     0.152 C 
ATOM    104  C3  BDP d 301       1.311  38.163  56.197  0.00  0.00     0.092 C 
ATOM    105  C1  BDP d 301      -0.620  37.226  57.333  0.00  0.00     0.156 C 
ATOM    106  O1  BDP d 301      -1.357  36.956  58.622  0.00  0.00    -0.368 OA
ATOM    107  C4  BDP d 301       1.573  36.779  55.551  0.00  0.00     0.103 C 
ATOM    108  C2  BDP d 301       0.671  37.955  57.562  0.00  0.00     0.110 C 
ATOM    109  O2  BDP d 301       0.382  39.200  58.194  0.00  0.00    -0.388 OA
ATOM    110  O4  BDP d 301       1.999  36.982  54.253  0.00  0.00    -0.348 OA
ATOM    111  O3  BDP d 301       2.544  38.865  56.364  0.00  0.00    -0.390 OA
ATOM    112  H   BDP d 301      -0.334  36.618  54.719  0.00  0.00     0.104 H 
ATOM    113  H   BDP d 301       0.663  38.732  55.564  0.00  0.00     0.091 H 
ATOM    114  H   BDP d 301      -1.192  37.875  56.703  0.00  0.00     0.133 H 
ATOM    115  H   BDP d 301      -0.826  36.367  59.181  0.00  0.00     0.212 HD
ATOM    116  H   BDP d 301       2.280  36.242  56.149  0.00  0.00     0.092 H 
ATOM    117  H   BDP d 301       1.341  37.410  58.193  0.00  0.00     0.094 H 
ATOM    118  H   BDP d 301      -0.225  39.712  57.637  0.00  0.00     0.210 HD
ATOM    119  H   BDP d 301       3.134  38.350  56.937  0.00  0.00     0.210 HD
ATOM    120  OSC ASG d 304       9.662  30.643  42.101  0.00  0.00    -0.572 OA
ATOM    121  O3  ASG d 304      12.069  31.285  45.876  0.00  0.00    -0.348 OA
ATOM    122  C5  ASG d 304      10.152  34.401  44.965  0.00  0.00     0.090 C 
ATOM    123  C6  ASG d 304       9.656  35.051  43.697  0.00  0.00     0.043 C 
ATOM    124  O4  ASG d 304      10.067  32.165  44.018  0.00  0.00    -0.246 OA
ATOM    125  C7  ASG d 304       9.740  30.820  48.983  0.00  0.00     0.214 C 
ATOM    126  C8  ASG d 304      10.364  30.405  50.296  0.00  0.00    -0.003 C 
ATOM    127  S   ASG d 304      10.577  31.650  42.596  0.00  0.00     0.252 S 
ATOM    128  OSB ASG d 304      10.633  32.759  41.660  0.00  0.00    -0.572 OA
ATOM    129  N   ASG d 304      10.543  31.689  48.258  0.00  0.00    -0.349 N 
ATOM    130  C4  ASG d 304      10.926  33.086  44.708  0.00  0.00     0.114 C 
ATOM    131  C3  ASG d 304      11.359  32.498  46.067  0.00  0.00     0.094 C 
ATOM    132  C1  ASG d 304       9.383  33.561  47.103  0.00  0.00     0.154 C 
ATOM    133  O7  ASG d 304       8.645  30.427  48.615  0.00  0.00    -0.274 OA
ATOM    134  O6  ASG d 304       9.349  36.428  43.922  0.00  0.00    -0.398 OA
ATOM    135  O5  ASG d 304       9.000  34.144  45.823  0.00  0.00    -0.349 OA
ATOM    136  C2  ASG d 304      10.131  32.236  46.922  0.00  0.00     0.087 C 
ATOM    137  OSA ASG d 304      11.907  31.079  42.734  0.00  0.00    -0.572 OA
ATOM    138  H   ASG d 304      10.845  35.067  45.434  0.00  0.00     0.090 H 
ATOM    139  H   ASG d 304       8.775  34.545  43.364  0.00  0.00     0.078 H 
ATOM    140  H   ASG d 304      10.424  34.987  42.955  0.00  0.00     0.078 H 
ATOM    141  H   ASG d 304      11.320  30.874  50.401  0.00  0.00     0.040 H 
ATOM    142  H   ASG d 304      10.485  29.343  50.313  0.00  0.00     0.040 H 
ATOM    143  H   ASG d 304       9.729  30.705  51.104  0.00  0.00     0.040 H 
ATOM    144  H   ASG d 304      11.413  31.956  48.634  0.00  0.00     0.163 HD
ATOM    145  H   ASG d 304      11.793  33.269  44.108  0.00  0.00     0.093 H 
ATOM    146  H   ASG d 304      12.000  33.201  46.558  0.00  0.00     0.091 H 
ATOM    147  H   ASG d 304      10.042  34.240  47.603  0.00  0.00     0.132 H 
ATOM    148  H   ASG d 304       8.652  36.498  44.594  0.00  0.00     0.209 HD
ATOM    149  H   ASG d 304       9.497  31.517  46.447  0.00  0.00     0.084 H 
ENDROOT
TORSDOF 38
ENDMDL
MODEL 71
REMARK VINA RESULT:      -4.5      4.575     16.336
REMARK  0 active torsions:
REMARK  status: ('A' for Active; 'I' for Inactive)
REMARK       I    between atoms: C6_2  and  C5_74 
REMARK       I    between atoms: C1_3  and  O4_24 
REMARK       I    between atoms: O6_4  and  C6_26 
REMARK       I    between atoms: C5_5  and  C6_12 
REMARK       I    between atoms: C4_6  and  O4_22 
REMARK       I    between atoms: C6_8  and  C5_90 
REMARK       I    between atoms: C6_8  and  O6_83 
REMARK       I    between atoms: O3_11  and  C3_60 
REMARK       I    between atoms: O3_11  and  C1_29 
REMARK       I    between atoms: C5_13  and  C6_18 
REMARK       I    between atoms: O4_14  and  C4_88 
REMARK       I    between atoms: O4_14  and  S_15 
REMARK       I    between atoms: C6_16  and  C5_28 
REMARK       I    between atoms: S_17  and  O4_22 
REMARK       I    between atoms: C6_18  and  O6_66 
REMARK       I    between atoms: O4_20  and  C4_46 
REMARK       I    between atoms: O4_20  and  C1_61 
REMARK       I    between atoms: O4_21  and  C4_54 
REMARK       I    between atoms: O4_21  and  S_40 
REMARK       I    between atoms: O4_24  and  C4_35 
REMARK       I    between atoms: O3_25  and  C3_48 
REMARK       I    between atoms: C6_26  and  C5_50 
REMARK       I    between atoms: C2_27  and  O2_55 
REMARK       I    between atoms: O3_31  and  C3_37 
REMARK       I    between atoms: C2_32  and  N_72 
REMARK       I    between atoms: C7_33  and  C8_39 
REMARK       I    between atoms: C7_33  and  N_52 
REMARK       I    between atoms: C1_34  and  O4_86 
REMARK       I    between atoms: C3_36  and  O3_87 
REMARK       I    between atoms: C2_47  and  O2_85 
REMARK       I    between atoms: N_52  and  C2_71 
REMARK       I    between atoms: C3_53  and  O3_81 
REMARK       I    between atoms: C1_56  and  O3_81 
REMARK       I    between atoms: C7_57  and  C8_64 
REMARK       I    between atoms: C7_57  and  N_63 
REMARK       I    between atoms: C8_58  and  C7_73 
REMARK       I    between atoms: C1_59  and  O1_68 
REMARK       I    between atoms: N_63  and  C2_67 
REMARK       I    between atoms: C4_69  and  O4_86 
REMARK       I    between atoms: N_72  and  C7_73 
REMARK       I    between atoms: C2_77  and  O2_82 
ROOT
ATOM      1  OSB ASG d 302       5.478  39.641  51.893  0.00  0.00    -0.572 OA
ATOM      2  O6  ASG d 302       6.241  37.213  55.475  0.00  0.00    -0.398 OA
ATOM      3  O4  ASG d 302       4.318  37.461  51.603  0.00  0.00    -0.246 OA
ATOM      4  S   ASG d 302       4.865  38.788  50.894  0.00  0.00     0.252 S 
ATOM      5  C6  ASG d 302       5.824  37.512  54.147  0.00  0.00     0.043 C 
ATOM      6  C2  ASG d 302       3.353  34.824  51.898  0.00  0.00     0.087 C 
ATOM      7  C1  ASG d 302       3.471  34.748  53.413  0.00  0.00     0.154 C 
ATOM      8  O5  ASG d 302       4.023  35.963  53.972  0.00  0.00    -0.349 OA
ATOM      9  C5  ASG d 302       5.338  36.267  53.450  0.00  0.00     0.090 C 
ATOM     10  O7  ASG d 302       1.069  34.479  50.179  0.00  0.00    -0.274 OA
ATOM     11  C3  ASG d 302       4.740  35.086  51.341  0.00  0.00     0.094 C 
ATOM     12  C8  ASG d 302       1.341  32.095  50.104  0.00  0.00    -0.003 C 
ATOM     13  OSA ASG d 302       5.843  38.447  49.878  0.00  0.00    -0.572 OA
ATOM     14  N   ASG d 302       2.818  33.536  51.365  0.00  0.00    -0.349 N 
ATOM     15  C7  ASG d 302       1.701  33.497  50.535  0.00  0.00     0.214 C 
ATOM     16  OSC ASG d 302       3.758  39.487  50.280  0.00  0.00    -0.572 OA
ATOM     17  O3  ASG d 302       4.621  35.214  49.970  0.00  0.00    -0.348 OA
ATOM     18  C4  ASG d 302       5.258  36.415  51.917  0.00  0.00     0.114 C 
ATOM     19  H   ASG d 302       6.550  38.024  55.908  0.00  0.00     0.209 HD
ATOM     20  H   ASG d 302       6.649  37.920  53.602  0.00  0.00     0.078 H 
ATOM     21  H   ASG d 302       5.021  38.219  54.188  0.00  0.00     0.078 H 
ATOM     22  H   ASG d 302       2.683  35.606  51.610  0.00  0.00     0.084 H 
ATOM     23  H   ASG d 302       4.125  33.934  53.643  0.00  0.00     0.132 H 
ATOM     24  H   ASG d 302       6.041  35.483  53.639  0.00  0.00     0.090 H 
ATOM     25  H   ASG d 302       5.412  34.293  51.594  0.00  0.00     0.091 H 
ATOM     26  H   ASG d 302       0.479  32.126  49.471  0.00  0.00     0.040 H 
ATOM     27  H   ASG d 302       1.126  31.500  50.968  0.00  0.00     0.040 H 
ATOM     28  H   ASG d 302       2.161  31.664  49.569  0.00  0.00     0.040 H 
ATOM     29  H   ASG d 302       3.265  32.693  51.607  0.00  0.00     0.163 HD
ATOM     30  H   ASG d 302       6.217  36.654  51.507  0.00  0.00     0.093 H 
ATOM     31  C6  BDP d 303       9.110  34.056  49.153  0.00  0.00     0.206 C 
ATOM     32  O4  BDP d 303       8.199  32.963  46.544  0.00  0.00    -0.348 OA
ATOM     33  O3  BDP d 303       5.618  33.620  45.583  0.00  0.00    -0.390 OA
ATOM     34  C3  BDP d 303       5.920  33.484  46.982  0.00  0.00     0.092 C 
ATOM     35  O6B BDP d 303       9.555  35.125  48.688  0.00  0.00    -0.646 OA
ATOM     36  C4  BDP d 303       7.389  33.845  47.244  0.00  0.00     0.103 C 
ATOM     37  C2  BDP d 303       5.051  34.445  47.769  0.00  0.00     0.110 C 
ATOM     38  O6A BDP d 303       9.667  33.215  49.896  0.00  0.00    -0.646 OA
ATOM     39  C1  BDP d 303       5.386  34.315  49.246  0.00  0.00     0.160 C 
ATOM     40  C5  BDP d 303       7.676  33.706  48.764  0.00  0.00     0.152 C 
ATOM     41  O5  BDP d 303       6.789  34.595  49.499  0.00  0.00    -0.340 OA
ATOM     42  O2  BDP d 303       3.667  34.134  47.581  0.00  0.00    -0.388 OA
ATOM     43  H   BDP d 303       4.689  33.389  45.430  0.00  0.00     0.210 HD
ATOM     44  H   BDP d 303       5.738  32.473  47.278  0.00  0.00     0.091 H 
ATOM     45  H   BDP d 303       7.586  34.848  46.928  0.00  0.00     0.092 H 
ATOM     46  H   BDP d 303       5.235  35.442  47.429  0.00  0.00     0.094 H 
ATOM     47  H   BDP d 303       5.177  33.310  49.545  0.00  0.00     0.133 H 
ATOM     48  H   BDP d 303       7.515  32.677  49.006  0.00  0.00     0.104 H 
ATOM     49  H   BDP d 303       3.493  33.231  47.889  0.00  0.00     0.210 HD
ATOM     50  C1  ASG d 306      17.118  35.214  46.793  0.00  0.00     0.151 C 
ATOM     51  C4  ASG d 306      18.813  37.605  46.856  0.00  0.00     0.089 C 
ATOM     52  C6  ASG d 306      16.795  38.800  45.872  0.00  0.00     0.043 C 
ATOM     53  S   ASG d 306      20.516  38.465  45.124  0.00  0.00     0.252 S 
ATOM     54  O4  ASG d 306      19.375  37.448  45.552  0.00  0.00    -0.249 OA
ATOM     55  OSB ASG d 306      20.972  38.127  43.788  0.00  0.00    -0.572 OA
ATOM     56  OSA ASG d 306      19.980  39.814  45.125  0.00  0.00    -0.572 OA
ATOM     57  C3  ASG d 306      19.247  36.375  47.730  0.00  0.00    -0.014 C 
ATOM     58  C7  ASG d 306      19.344  32.678  47.079  0.00  0.00     0.214 C 
ATOM     59  N   ASG d 306      18.880  33.824  47.732  0.00  0.00    -0.352 N 
ATOM     60  C8  ASG d 306      19.549  31.518  48.020  0.00  0.00    -0.003 C 
ATOM     61  C2  ASG d 306      18.599  35.086  46.979  0.00  0.00     0.062 C 
ATOM     62  O5  ASG d 306      16.790  36.420  46.062  0.00  0.00    -0.349 OA
ATOM     63  O6  ASG d 306      15.383  38.746  45.673  0.00  0.00    -0.398 OA
ATOM     64  O7  ASG d 306      19.559  32.602  45.873  0.00  0.00    -0.274 OA
ATOM     65  OSC ASG d 306      21.619  38.380  46.055  0.00  0.00    -0.572 OA
ATOM     66  C5  ASG d 306      17.262  37.636  46.718  0.00  0.00     0.088 C 
ATOM     67  H   ASG d 306      16.643  35.276  47.750  0.00  0.00     0.132 H 
ATOM     68  H   ASG d 306      19.150  38.511  47.317  0.00  0.00     0.089 H 
ATOM     69  H   ASG d 306      17.286  38.762  44.921  0.00  0.00     0.078 H 
ATOM     70  H   ASG d 306      17.035  39.712  46.378  0.00  0.00     0.078 H 
ATOM     71  H   ASG d 306      18.863  36.464  48.725  0.00  0.00     0.040 H 
ATOM     72  H   ASG d 306      20.311  36.298  47.821  0.00  0.00     0.040 H 
ATOM     73  H   ASG d 306      18.736  33.800  48.706  0.00  0.00     0.163 HD
ATOM     74  H   ASG d 306      19.299  31.818  49.017  0.00  0.00     0.040 H 
ATOM     75  H   ASG d 306      20.572  31.208  47.987  0.00  0.00     0.040 H 
ATOM     76  H   ASG d 306      18.920  30.704  47.725  0.00  0.00     0.040 H 
ATOM     77  H   ASG d 306      19.059  35.047  46.013  0.00  0.00     0.080 H 
ATOM     78  H   ASG d 306      15.153  37.923  45.214  0.00  0.00     0.209 HD
ATOM     79  H   ASG d 306      16.870  37.726  47.710  0.00  0.00     0.090 H 
ATOM     80  C5  BDP d 305      14.851  32.509  46.273  0.00  0.00     0.152 C 
ATOM     81  O6B BDP d 305      13.862  33.325  48.241  0.00  0.00    -0.646 OA
ATOM     82  C6  BDP d 305      14.784  32.619  47.790  0.00  0.00     0.206 C 
ATOM     83  O4  BDP d 305      16.663  34.096  46.101  0.00  0.00    -0.348 OA
ATOM     84  O3  BDP d 305      15.981  34.721  43.414  0.00  0.00    -0.390 OA
ATOM     85  C2  BDP d 305      14.026  33.361  43.619  0.00  0.00     0.110 C 
ATOM     86  C1  BDP d 305      13.430  32.135  44.327  0.00  0.00     0.160 C 
ATOM     87  C4  BDP d 305      15.416  33.781  45.599  0.00  0.00     0.103 C 
ATOM     88  O6A BDP d 305      15.678  31.982  48.399  0.00  0.00    -0.646 OA
ATOM     89  C3  BDP d 305      15.457  33.567  44.074  0.00  0.00     0.092 C 
ATOM     90  O2  BDP d 305      13.957  33.146  42.207  0.00  0.00    -0.388 OA
ATOM     91  O5  BDP d 305      13.495  32.286  45.777  0.00  0.00    -0.340 OA
ATOM     92  H   BDP d 305      15.511  31.702  46.033  0.00  0.00     0.104 H 
ATOM     93  H   BDP d 305      15.998  34.566  42.456  0.00  0.00     0.210 HD
ATOM     94  H   BDP d 305      13.474  34.243  43.865  0.00  0.00     0.094 H 
ATOM     95  H   BDP d 305      14.004  31.279  44.039  0.00  0.00     0.133 H 
ATOM     96  H   BDP d 305      14.777  34.611  45.814  0.00  0.00     0.092 H 
ATOM     97  H   BDP d 305      16.081  32.730  43.839  0.00  0.00     0.091 H 
ATOM     98  H   BDP d 305      14.456  32.346  41.977  0.00  0.00     0.210 HD
ATOM     99  O6B BDP d 301       1.934  31.076  55.009  0.00  0.00    -0.646 OA
ATOM    100  C6  BDP d 301       1.200  31.885  54.400  0.00  0.00     0.206 C 
ATOM    101  O6A BDP d 301       0.698  31.806  53.257  0.00  0.00    -0.646 OA
ATOM    102  O5  BDP d 301       0.399  32.793  56.483  0.00  0.00    -0.340 OA
ATOM    103  C5  BDP d 301       0.860  33.159  55.162  0.00  0.00     0.152 C 
ATOM    104  C3  BDP d 301       1.576  35.373  56.091  0.00  0.00     0.092 C 
ATOM    105  C1  BDP d 301       0.029  33.945  57.300  0.00  0.00     0.156 C 
ATOM    106  O1  BDP d 301      -0.470  33.400  58.616  0.00  0.00    -0.368 OA
ATOM    107  C4  BDP d 301       2.023  34.146  55.258  0.00  0.00     0.103 C 
ATOM    108  C2  BDP d 301       1.169  34.904  57.480  0.00  0.00     0.110 C 
ATOM    109  O2  BDP d 301       0.722  35.991  58.286  0.00  0.00    -0.388 OA
ATOM    110  O4  BDP d 301       2.231  34.560  53.957  0.00  0.00    -0.348 OA
ATOM    111  O3  BDP d 301       2.658  36.300  56.213  0.00  0.00    -0.390 OA
ATOM    112  H   BDP d 301       0.095  33.669  54.615  0.00  0.00     0.104 H 
ATOM    113  H   BDP d 301       0.753  35.852  55.603  0.00  0.00     0.091 H 
ATOM    114  H   BDP d 301      -0.735  34.517  56.817  0.00  0.00     0.133 H 
ATOM    115  H   BDP d 301       0.233  32.885  59.040  0.00  0.00     0.212 HD
ATOM    116  H   BDP d 301       2.892  33.714  55.709  0.00  0.00     0.092 H 
ATOM    117  H   BDP d 301       2.008  34.452  57.966  0.00  0.00     0.094 H 
ATOM    118  H   BDP d 301      -0.040  36.416  57.862  0.00  0.00     0.210 HD
ATOM    119  H   BDP d 301       3.406  35.867  56.654  0.00  0.00     0.210 HD
ATOM    120  OSC ASG d 304       9.389  31.197  40.391  0.00  0.00    -0.572 OA
ATOM    121  O3  ASG d 304      12.082  31.960  43.945  0.00  0.00    -0.348 OA
ATOM    122  C5  ASG d 304       9.487  34.675  43.624  0.00  0.00     0.090 C 
ATOM    123  C6  ASG d 304       8.715  35.328  42.504  0.00  0.00     0.043 C 
ATOM    124  O4  ASG d 304       9.726  32.576  42.426  0.00  0.00    -0.246 OA
ATOM    125  C7  ASG d 304      10.304  30.713  47.197  0.00  0.00     0.214 C 
ATOM    126  C8  ASG d 304      11.160  30.312  48.377  0.00  0.00    -0.003 C 
ATOM    127  S   ASG d 304      10.143  32.322  40.907  0.00  0.00     0.252 S 
ATOM    128  OSB ASG d 304       9.860  33.503  40.112  0.00  0.00    -0.572 OA
ATOM    129  N   ASG d 304      10.821  31.798  46.504  0.00  0.00    -0.349 N 
ATOM    130  C4  ASG d 304      10.466  33.585  43.130  0.00  0.00     0.114 C 
ATOM    131  C3  ASG d 304      11.176  32.972  44.355  0.00  0.00     0.094 C 
ATOM    132  C1  ASG d 304       9.177  33.487  45.713  0.00  0.00     0.154 C 
ATOM    133  O7  ASG d 304       9.271  30.136  46.900  0.00  0.00    -0.274 OA
ATOM    134  O6  ASG d 304       8.173  36.580  42.926  0.00  0.00    -0.398 OA
ATOM    135  O5  ASG d 304       8.527  34.099  44.560  0.00  0.00    -0.349 OA
ATOM    136  C2  ASG d 304      10.143  32.374  45.295  0.00  0.00     0.087 C 
ATOM    137  OSA ASG d 304      11.566  32.033  40.834  0.00  0.00    -0.572 OA
ATOM    138  H   ASG d 304      10.088  35.423  44.096  0.00  0.00     0.090 H 
ATOM    139  H   ASG d 304       7.916  34.683  42.205  0.00  0.00     0.078 H 
ATOM    140  H   ASG d 304       9.380  35.500  41.683  0.00  0.00     0.078 H 
ATOM    141  H   ASG d 304      12.010  30.959  48.438  0.00  0.00     0.040 H 
ATOM    142  H   ASG d 304      11.489  29.302  48.252  0.00  0.00     0.040 H 
ATOM    143  H   ASG d 304      10.586  30.391  49.277  0.00  0.00     0.040 H 
ATOM    144  H   ASG d 304      11.662  32.204  46.816  0.00  0.00     0.163 HD
ATOM    145  H   ASG d 304      11.197  34.005  42.470  0.00  0.00     0.093 H 
ATOM    146  H   ASG d 304      11.722  33.742  44.859  0.00  0.00     0.091 H 
ATOM    147  H   ASG d 304       9.746  34.238  46.220  0.00  0.00     0.132 H 
ATOM    148  H   ASG d 304       7.567  36.436  43.671  0.00  0.00     0.209 HD
ATOM    149  H   ASG d 304       9.608  31.588  44.804  0.00  0.00     0.084 H 
ENDROOT
TORSDOF 38
ENDMDL
MODEL 72
REMARK VINA RESULT:      -4.5      3.634     15.181
REMARK  0 active torsions:
REMARK  status: ('A' for Active; 'I' for Inactive)
REMARK       I    between atoms: C6_2  and  C5_74 
REMARK       I    between atoms: C1_3  and  O4_24 
REMARK       I    between atoms: O6_4  and  C6_26 
REMARK       I    between atoms: C5_5  and  C6_12 
REMARK       I    between atoms: C4_6  and  O4_22 
REMARK       I    between atoms: C6_8  and  C5_90 
REMARK       I    between atoms: C6_8  and  O6_83 
REMARK       I    between atoms: O3_11  and  C3_60 
REMARK       I    between atoms: O3_11  and  C1_29 
REMARK       I    between atoms: C5_13  and  C6_18 
REMARK       I    between atoms: O4_14  and  C4_88 
REMARK       I    between atoms: O4_14  and  S_15 
REMARK       I    between atoms: C6_16  and  C5_28 
REMARK       I    between atoms: S_17  and  O4_22 
REMARK       I    between atoms: C6_18  and  O6_66 
REMARK       I    between atoms: O4_20  and  C4_46 
REMARK       I    between atoms: O4_20  and  C1_61 
REMARK       I    between atoms: O4_21  and  C4_54 
REMARK       I    between atoms: O4_21  and  S_40 
REMARK       I    between atoms: O4_24  and  C4_35 
REMARK       I    between atoms: O3_25  and  C3_48 
REMARK       I    between atoms: C6_26  and  C5_50 
REMARK       I    between atoms: C2_27  and  O2_55 
REMARK       I    between atoms: O3_31  and  C3_37 
REMARK       I    between atoms: C2_32  and  N_72 
REMARK       I    between atoms: C7_33  and  C8_39 
REMARK       I    between atoms: C7_33  and  N_52 
REMARK       I    between atoms: C1_34  and  O4_86 
REMARK       I    between atoms: C3_36  and  O3_87 
REMARK       I    between atoms: C2_47  and  O2_85 
REMARK       I    between atoms: N_52  and  C2_71 
REMARK       I    between atoms: C3_53  and  O3_81 
REMARK       I    between atoms: C1_56  and  O3_81 
REMARK       I    between atoms: C7_57  and  C8_64 
REMARK       I    between atoms: C7_57  and  N_63 
REMARK       I    between atoms: C8_58  and  C7_73 
REMARK       I    between atoms: C1_59  and  O1_68 
REMARK       I    between atoms: N_63  and  C2_67 
REMARK       I    between atoms: C4_69  and  O4_86 
REMARK       I    between atoms: N_72  and  C7_73 
REMARK       I    between atoms: C2_77  and  O2_82 
ROOT
ATOM      1  OSB ASG d 302      10.945  30.765  47.431  0.00  0.00    -0.572 OA
ATOM      2  O6  ASG d 302       9.129  34.638  46.421  0.00  0.00    -0.398 OA
ATOM      3  O4  ASG d 302      11.416  32.343  49.294  0.00  0.00    -0.246 OA
ATOM      4  S   ASG d 302      11.795  30.956  48.589  0.00  0.00     0.252 S 
ATOM      5  C6  ASG d 302       9.947  33.705  47.120  0.00  0.00     0.043 C 
ATOM      6  C2  ASG d 302      11.643  34.617  50.952  0.00  0.00     0.087 C 
ATOM      7  C1  ASG d 302      10.461  35.386  50.379  0.00  0.00     0.154 C 
ATOM      8  O5  ASG d 302       9.827  34.669  49.294  0.00  0.00    -0.349 OA
ATOM      9  C5  ASG d 302      10.736  34.397  48.202  0.00  0.00     0.090 C 
ATOM     10  O7  ASG d 302      12.183  33.748  53.643  0.00  0.00    -0.274 OA
ATOM     11  C3  ASG d 302      12.627  34.378  49.822  0.00  0.00     0.094 C 
ATOM     12  C8  ASG d 302      13.175  35.850  54.245  0.00  0.00    -0.003 C 
ATOM     13  OSA ASG d 302      13.186  30.968  48.176  0.00  0.00    -0.572 OA
ATOM     14  N   ASG d 302      12.287  35.413  52.038  0.00  0.00    -0.349 N 
ATOM     15  C7  ASG d 302      12.499  34.878  53.306  0.00  0.00     0.214 C 
ATOM     16  OSC ASG d 302      11.580  29.875  49.525  0.00  0.00    -0.572 OA
ATOM     17  O3  ASG d 302      13.671  33.628  50.330  0.00  0.00    -0.348 OA
ATOM     18  C4  ASG d 302      11.925  33.564  48.722  0.00  0.00     0.114 C 
ATOM     19  H   ASG d 302       8.630  34.175  45.730  0.00  0.00     0.209 HD
ATOM     20  H   ASG d 302      10.625  33.246  46.431  0.00  0.00     0.078 H 
ATOM     21  H   ASG d 302       9.320  32.964  47.571  0.00  0.00     0.078 H 
ATOM     22  H   ASG d 302      11.321  33.686  51.368  0.00  0.00     0.084 H 
ATOM     23  H   ASG d 302      10.835  36.317  50.007  0.00  0.00     0.132 H 
ATOM     24  H   ASG d 302      11.155  35.291  47.790  0.00  0.00     0.090 H 
ATOM     25  H   ASG d 302      12.982  35.303  49.419  0.00  0.00     0.091 H 
ATOM     26  H   ASG d 302      13.312  35.387  55.200  0.00  0.00     0.040 H 
ATOM     27  H   ASG d 302      12.565  36.723  54.355  0.00  0.00     0.040 H 
ATOM     28  H   ASG d 302      14.127  36.129  53.845  0.00  0.00     0.040 H 
ATOM     29  H   ASG d 302      12.570  36.337  51.854  0.00  0.00     0.163 HD
ATOM     30  H   ASG d 302      12.607  33.336  47.929  0.00  0.00     0.093 H 
ATOM     31  C6  BDP d 303      16.719  35.055  47.039  0.00  0.00     0.206 C 
ATOM     32  O4  BDP d 303      18.857  34.679  49.067  0.00  0.00    -0.348 OA
ATOM     33  O3  BDP d 303      18.297  33.223  51.430  0.00  0.00    -0.390 OA
ATOM     34  C3  BDP d 303      17.314  34.023  50.754  0.00  0.00     0.092 C 
ATOM     35  O6B BDP d 303      16.938  33.987  46.432  0.00  0.00    -0.646 OA
ATOM     36  C4  BDP d 303      17.620  34.081  49.250  0.00  0.00     0.103 C 
ATOM     37  C2  BDP d 303      15.950  33.386  50.934  0.00  0.00     0.110 C 
ATOM     38  O6A BDP d 303      16.632  36.223  46.595  0.00  0.00    -0.646 OA
ATOM     39  C1  BDP d 303      14.914  34.222  50.200  0.00  0.00     0.160 C 
ATOM     40  C5  BDP d 303      16.530  34.936  48.549  0.00  0.00     0.152 C 
ATOM     41  O5  BDP d 303      15.227  34.335  48.787  0.00  0.00    -0.340 OA
ATOM     42  O2  BDP d 303      15.603  33.332  52.321  0.00  0.00    -0.388 OA
ATOM     43  H   BDP d 303      18.094  33.194  52.378  0.00  0.00     0.210 HD
ATOM     44  H   BDP d 303      17.331  35.011  51.164  0.00  0.00     0.091 H 
ATOM     45  H   BDP d 303      17.628  33.094  48.837  0.00  0.00     0.092 H 
ATOM     46  H   BDP d 303      15.975  32.391  50.540  0.00  0.00     0.094 H 
ATOM     47  H   BDP d 303      14.915  35.201  50.631  0.00  0.00     0.133 H 
ATOM     48  H   BDP d 303      16.608  35.919  48.965  0.00  0.00     0.104 H 
ATOM     49  H   BDP d 303      15.578  34.231  52.683  0.00  0.00     0.210 HD
ATOM     50  C1  ASG d 306      21.811  34.370  40.359  0.00  0.00     0.151 C 
ATOM     51  C4  ASG d 306      21.692  32.599  38.025  0.00  0.00     0.089 C 
ATOM     52  C6  ASG d 306      21.216  30.759  39.715  0.00  0.00     0.043 C 
ATOM     53  S   ASG d 306      23.590  31.362  36.796  0.00  0.00     0.252 S 
ATOM     54  O4  ASG d 306      23.077  32.247  38.010  0.00  0.00    -0.249 OA
ATOM     55  OSB ASG d 306      25.016  31.136  36.947  0.00  0.00    -0.572 OA
ATOM     56  OSA ASG d 306      22.894  30.088  36.806  0.00  0.00    -0.572 OA
ATOM     57  C3  ASG d 306      21.576  34.146  37.779  0.00  0.00    -0.014 C 
ATOM     58  C7  ASG d 306      23.415  37.107  39.173  0.00  0.00     0.214 C 
ATOM     59  N   ASG d 306      22.279  36.317  38.976  0.00  0.00    -0.352 N 
ATOM     60  C8  ASG d 306      23.118  38.583  39.083  0.00  0.00    -0.003 C 
ATOM     61  C2  ASG d 306      22.352  34.823  39.037  0.00  0.00     0.062 C 
ATOM     62  O5  ASG d 306      21.865  32.928  40.473  0.00  0.00    -0.349 OA
ATOM     63  O6  ASG d 306      20.779  30.471  41.042  0.00  0.00    -0.398 OA
ATOM     64  O7  ASG d 306      24.538  36.668  39.404  0.00  0.00    -0.274 OA
ATOM     65  OSC ASG d 306      23.330  32.047  35.549  0.00  0.00    -0.572 OA
ATOM     66  C5  ASG d 306      21.114  32.240  39.426  0.00  0.00     0.088 C 
ATOM     67  H   ASG d 306      20.786  34.664  40.443  0.00  0.00     0.132 H 
ATOM     68  H   ASG d 306      21.150  32.072  37.267  0.00  0.00     0.089 H 
ATOM     69  H   ASG d 306      22.235  30.449  39.606  0.00  0.00     0.078 H 
ATOM     70  H   ASG d 306      20.591  30.230  39.026  0.00  0.00     0.078 H 
ATOM     71  H   ASG d 306      20.550  34.449  37.762  0.00  0.00     0.040 H 
ATOM     72  H   ASG d 306      21.994  34.439  36.839  0.00  0.00     0.040 H 
ATOM     73  H   ASG d 306      21.415  36.751  38.793  0.00  0.00     0.163 HD
ATOM     74  H   ASG d 306      22.078  38.725  38.875  0.00  0.00     0.040 H 
ATOM     75  H   ASG d 306      23.701  39.017  38.298  0.00  0.00     0.040 H 
ATOM     76  H   ASG d 306      23.364  39.053  40.012  0.00  0.00     0.040 H 
ATOM     77  H   ASG d 306      23.371  34.503  38.960  0.00  0.00     0.080 H 
ATOM     78  H   ASG d 306      21.339  30.945  41.677  0.00  0.00     0.209 HD
ATOM     79  H   ASG d 306      20.086  32.539  39.416  0.00  0.00     0.090 H 
ATOM     80  C5  BDP d 305      22.165  36.111  43.452  0.00  0.00     0.152 C 
ATOM     81  O6B BDP d 305      19.817  36.111  43.401  0.00  0.00    -0.646 OA
ATOM     82  C6  BDP d 305      20.837  36.686  42.978  0.00  0.00     0.206 C 
ATOM     83  O4  BDP d 305      22.566  34.959  41.368  0.00  0.00    -0.348 OA
ATOM     84  O3  BDP d 305      24.287  33.083  42.632  0.00  0.00    -0.390 OA
ATOM     85  C2  BDP d 305      23.718  34.027  44.753  0.00  0.00     0.110 C 
ATOM     86  C1  BDP d 305      23.284  35.316  45.467  0.00  0.00     0.160 C 
ATOM     87  C4  BDP d 305      22.542  34.792  42.738  0.00  0.00     0.103 C 
ATOM     88  O6A BDP d 305      20.941  37.674  42.210  0.00  0.00    -0.646 OA
ATOM     89  C3  BDP d 305      23.900  34.300  43.273  0.00  0.00     0.092 C 
ATOM     90  O2  BDP d 305      24.935  33.567  45.348  0.00  0.00    -0.388 OA
ATOM     91  O5  BDP d 305      22.056  35.848  44.884  0.00  0.00    -0.340 OA
ATOM     92  H   BDP d 305      22.929  36.824  43.226  0.00  0.00     0.104 H 
ATOM     93  H   BDP d 305      25.143  32.791  42.982  0.00  0.00     0.210 HD
ATOM     94  H   BDP d 305      22.971  33.269  44.857  0.00  0.00     0.094 H 
ATOM     95  H   BDP d 305      24.067  36.035  45.349  0.00  0.00     0.133 H 
ATOM     96  H   BDP d 305      21.800  34.051  42.947  0.00  0.00     0.092 H 
ATOM     97  H   BDP d 305      24.655  35.035  43.087  0.00  0.00     0.091 H 
ATOM     98  H   BDP d 305      25.617  34.251  45.258  0.00  0.00     0.210 HD
ATOM     99  O6B BDP d 301       9.706  39.054  52.470  0.00  0.00    -0.646 OA
ATOM    100  C6  BDP d 301       9.614  37.944  53.039  0.00  0.00     0.206 C 
ATOM    101  O6A BDP d 301      10.370  37.410  53.880  0.00  0.00    -0.646 OA
ATOM    102  O5  BDP d 301       7.222  37.947  52.753  0.00  0.00    -0.340 OA
ATOM    103  C5  BDP d 301       8.398  37.112  52.653  0.00  0.00     0.152 C 
ATOM    104  C3  BDP d 301       7.189  35.715  50.960  0.00  0.00     0.092 C 
ATOM    105  C1  BDP d 301       5.988  37.241  52.418  0.00  0.00     0.156 C 
ATOM    106  O1  BDP d 301       4.860  38.224  52.615  0.00  0.00    -0.368 OA
ATOM    107  C4  BDP d 301       8.495  36.493  51.259  0.00  0.00     0.103 C 
ATOM    108  C2  BDP d 301       6.015  36.681  51.026  0.00  0.00     0.110 C 
ATOM    109  O2  BDP d 301       4.779  36.013  50.784  0.00  0.00    -0.388 OA
ATOM    110  O4  BDP d 301       9.528  35.580  51.358  0.00  0.00    -0.348 OA
ATOM    111  O3  BDP d 301       7.249  35.147  49.650  0.00  0.00    -0.390 OA
ATOM    112  H   BDP d 301       8.343  36.286  53.330  0.00  0.00     0.104 H 
ATOM    113  H   BDP d 301       7.069  34.933  51.680  0.00  0.00     0.091 H 
ATOM    114  H   BDP d 301       5.859  36.390  53.053  0.00  0.00     0.133 H 
ATOM    115  H   BDP d 301       4.992  38.989  52.033  0.00  0.00     0.212 HD
ATOM    116  H   BDP d 301       8.649  37.225  50.494  0.00  0.00     0.092 H 
ATOM    117  H   BDP d 301       6.134  37.441  50.283  0.00  0.00     0.094 H 
ATOM    118  H   BDP d 301       4.651  35.318  51.448  0.00  0.00     0.210 HD
ATOM    119  H   BDP d 301       7.358  35.854  48.995  0.00  0.00     0.210 HD
ATOM    120  OSC ASG d 304      25.096  33.663  50.633  0.00  0.00    -0.572 OA
ATOM    121  O3  ASG d 304      23.068  35.063  46.839  0.00  0.00    -0.348 OA
ATOM    122  C5  ASG d 304      21.269  32.089  48.300  0.00  0.00     0.090 C 
ATOM    123  C6  ASG d 304      21.639  30.878  49.122  0.00  0.00     0.043 C 
ATOM    124  O4  ASG d 304      23.084  33.430  49.200  0.00  0.00    -0.246 OA
ATOM    125  C7  ASG d 304      20.006  37.310  47.771  0.00  0.00     0.214 C 
ATOM    126  C8  ASG d 304      19.538  38.341  46.770  0.00  0.00    -0.003 C 
ATOM    127  S   ASG d 304      24.616  33.041  49.415  0.00  0.00     0.252 S 
ATOM    128  OSB ASG d 304      24.751  31.599  49.519  0.00  0.00    -0.572 OA
ATOM    129  N   ASG d 304      20.441  36.137  47.170  0.00  0.00    -0.349 N 
ATOM    130  C4  ASG d 304      22.481  32.991  47.972  0.00  0.00     0.114 C 
ATOM    131  C3  ASG d 304      21.985  34.203  47.157  0.00  0.00     0.094 C 
ATOM    132  C1  ASG d 304      19.801  34.015  48.298  0.00  0.00     0.154 C 
ATOM    133  O7  ASG d 304      19.995  37.501  48.976  0.00  0.00    -0.274 OA
ATOM    134  O6  ASG d 304      20.624  29.877  49.033  0.00  0.00    -0.398 OA
ATOM    135  O5  ASG d 304      20.265  32.847  49.037  0.00  0.00    -0.349 OA
ATOM    136  C2  ASG d 304      20.952  34.970  47.965  0.00  0.00     0.087 C 
ATOM    137  OSA ASG d 304      25.401  33.508  48.284  0.00  0.00    -0.572 OA
ATOM    138  H   ASG d 304      20.887  31.751  47.360  0.00  0.00     0.090 H 
ATOM    139  H   ASG d 304      21.755  31.170  50.144  0.00  0.00     0.078 H 
ATOM    140  H   ASG d 304      22.555  30.474  48.745  0.00  0.00     0.078 H 
ATOM    141  H   ASG d 304      19.642  37.949  45.779  0.00  0.00     0.040 H 
ATOM    142  H   ASG d 304      20.130  39.226  46.866  0.00  0.00     0.040 H 
ATOM    143  H   ASG d 304      18.511  38.577  46.954  0.00  0.00     0.040 H 
ATOM    144  H   ASG d 304      20.414  36.068  46.189  0.00  0.00     0.163 HD
ATOM    145  H   ASG d 304      23.209  32.454  47.400  0.00  0.00     0.093 H 
ATOM    146  H   ASG d 304      21.545  33.850  46.248  0.00  0.00     0.091 H 
ATOM    147  H   ASG d 304      19.375  33.686  47.374  0.00  0.00     0.132 H 
ATOM    148  H   ASG d 304      19.787  30.234  49.372  0.00  0.00     0.209 HD
ATOM    149  H   ASG d 304      21.391  35.345  48.866  0.00  0.00     0.084 H 
ENDROOT
TORSDOF 38
ENDMDL
MODEL 73
REMARK VINA RESULT:      -4.5      3.662     14.926
REMARK  0 active torsions:
REMARK  status: ('A' for Active; 'I' for Inactive)
REMARK       I    between atoms: C6_2  and  C5_74 
REMARK       I    between atoms: C1_3  and  O4_24 
REMARK       I    between atoms: O6_4  and  C6_26 
REMARK       I    between atoms: C5_5  and  C6_12 
REMARK       I    between atoms: C4_6  and  O4_22 
REMARK       I    between atoms: C6_8  and  C5_90 
REMARK       I    between atoms: C6_8  and  O6_83 
REMARK       I    between atoms: O3_11  and  C3_60 
REMARK       I    between atoms: O3_11  and  C1_29 
REMARK       I    between atoms: C5_13  and  C6_18 
REMARK       I    between atoms: O4_14  and  C4_88 
REMARK       I    between atoms: O4_14  and  S_15 
REMARK       I    between atoms: C6_16  and  C5_28 
REMARK       I    between atoms: S_17  and  O4_22 
REMARK       I    between atoms: C6_18  and  O6_66 
REMARK       I    between atoms: O4_20  and  C4_46 
REMARK       I    between atoms: O4_20  and  C1_61 
REMARK       I    between atoms: O4_21  and  C4_54 
REMARK       I    between atoms: O4_21  and  S_40 
REMARK       I    between atoms: O4_24  and  C4_35 
REMARK       I    between atoms: O3_25  and  C3_48 
REMARK       I    between atoms: C6_26  and  C5_50 
REMARK       I    between atoms: C2_27  and  O2_55 
REMARK       I    between atoms: O3_31  and  C3_37 
REMARK       I    between atoms: C2_32  and  N_72 
REMARK       I    between atoms: C7_33  and  C8_39 
REMARK       I    between atoms: C7_33  and  N_52 
REMARK       I    between atoms: C1_34  and  O4_86 
REMARK       I    between atoms: C3_36  and  O3_87 
REMARK       I    between atoms: C2_47  and  O2_85 
REMARK       I    between atoms: N_52  and  C2_71 
REMARK       I    between atoms: C3_53  and  O3_81 
REMARK       I    between atoms: C1_56  and  O3_81 
REMARK       I    between atoms: C7_57  and  C8_64 
REMARK       I    between atoms: C7_57  and  N_63 
REMARK       I    between atoms: C8_58  and  C7_73 
REMARK       I    between atoms: C1_59  and  O1_68 
REMARK       I    between atoms: N_63  and  C2_67 
REMARK       I    between atoms: C4_69  and  O4_86 
REMARK       I    between atoms: N_72  and  C7_73 
REMARK       I    between atoms: C2_77  and  O2_82 
ROOT
ATOM      1  OSB ASG d 302       7.934  33.954  49.418  0.00  0.00    -0.572 OA
ATOM      2  O6  ASG d 302       7.326  38.297  49.698  0.00  0.00    -0.398 OA
ATOM      3  O4  ASG d 302       8.543  34.667  51.721  0.00  0.00    -0.246 OA
ATOM      4  S   ASG d 302       8.643  33.522  50.607  0.00  0.00     0.252 S 
ATOM      5  C6  ASG d 302       7.776  36.999  50.075  0.00  0.00     0.043 C 
ATOM      6  C2  ASG d 302       9.124  36.146  54.055  0.00  0.00     0.087 C 
ATOM      7  C1  ASG d 302       8.266  37.360  53.727  0.00  0.00     0.154 C 
ATOM      8  O5  ASG d 302       7.620  37.230  52.440  0.00  0.00    -0.349 OA
ATOM      9  C5  ASG d 302       8.565  37.064  51.357  0.00  0.00     0.090 C 
ATOM     10  O7  ASG d 302       9.059  34.365  56.316  0.00  0.00    -0.274 OA
ATOM     11  C3  ASG d 302      10.155  35.999  52.951  0.00  0.00     0.094 C 
ATOM     12  C8  ASG d 302      10.469  35.797  57.631  0.00  0.00    -0.003 C 
ATOM     13  OSA ASG d 302      10.032  33.262  50.278  0.00  0.00    -0.572 OA
ATOM     14  N   ASG d 302       9.801  36.343  55.371  0.00  0.00    -0.349 N 
ATOM     15  C7  ASG d 302       9.697  35.403  56.393  0.00  0.00     0.214 C 
ATOM     16  OSC ASG d 302       8.035  32.313  51.115  0.00  0.00    -0.572 OA
ATOM     17  O3  ASG d 302      10.893  34.862  53.220  0.00  0.00    -0.348 OA
ATOM     18  C4  ASG d 302       9.420  35.805  51.614  0.00  0.00     0.114 C 
ATOM     19  H   ASG d 302       6.821  38.237  48.872  0.00  0.00     0.209 HD
ATOM     20  H   ASG d 302       8.398  36.604  49.299  0.00  0.00     0.078 H 
ATOM     21  H   ASG d 302       6.925  36.368  50.224  0.00  0.00     0.078 H 
ATOM     22  H   ASG d 302       8.521  35.265  54.120  0.00  0.00     0.084 H 
ATOM     23  H   ASG d 302       8.913  38.212  53.705  0.00  0.00     0.132 H 
ATOM     24  H   ASG d 302       9.251  37.882  51.288  0.00  0.00     0.090 H 
ATOM     25  H   ASG d 302      10.786  36.861  52.898  0.00  0.00     0.091 H 
ATOM     26  H   ASG d 302      10.354  35.041  58.379  0.00  0.00     0.040 H 
ATOM     27  H   ASG d 302      10.094  36.728  58.003  0.00  0.00     0.040 H 
ATOM     28  H   ASG d 302      11.505  35.902  57.387  0.00  0.00     0.040 H 
ATOM     29  H   ASG d 302      10.333  37.157  55.521  0.00  0.00     0.163 HD
ATOM     30  H   ASG d 302      10.119  35.651  50.819  0.00  0.00     0.093 H 
ATOM     31  C6  BDP d 303      14.616  36.307  50.727  0.00  0.00     0.206 C 
ATOM     32  O4  BDP d 303      16.296  34.721  52.595  0.00  0.00    -0.348 OA
ATOM     33  O3  BDP d 303      15.071  32.826  54.305  0.00  0.00    -0.390 OA
ATOM     34  C3  BDP d 303      14.426  34.044  53.899  0.00  0.00     0.092 C 
ATOM     35  O6B BDP d 303      14.632  35.465  49.805  0.00  0.00    -0.646 OA
ATOM     36  C4  BDP d 303      14.933  34.477  52.516  0.00  0.00     0.103 C 
ATOM     37  C2  BDP d 303      12.932  33.801  53.798  0.00  0.00     0.110 C 
ATOM     38  O6A BDP d 303      14.892  37.528  50.698  0.00  0.00    -0.646 OA
ATOM     39  C1  BDP d 303      12.253  35.084  53.348  0.00  0.00     0.160 C 
ATOM     40  C5  BDP d 303      14.204  35.783  52.100  0.00  0.00     0.152 C 
ATOM     41  O5  BDP d 303      12.770  35.537  52.068  0.00  0.00    -0.340 OA
ATOM     42  O2  BDP d 303      12.402  33.419  55.071  0.00  0.00    -0.388 OA
ATOM     43  H   BDP d 303      14.743  32.563  55.179  0.00  0.00     0.210 HD
ATOM     44  H   BDP d 303      14.641  34.806  54.618  0.00  0.00     0.091 H 
ATOM     45  H   BDP d 303      14.743  33.709  51.795  0.00  0.00     0.092 H 
ATOM     46  H   BDP d 303      12.753  33.015  53.094  0.00  0.00     0.094 H 
ATOM     47  H   BDP d 303      12.449  35.837  54.083  0.00  0.00     0.133 H 
ATOM     48  H   BDP d 303      14.475  36.521  52.825  0.00  0.00     0.104 H 
ATOM     49  H   BDP d 303      12.560  34.129  55.713  0.00  0.00     0.210 HD
ATOM     50  C1  ASG d 306      20.203  36.308  44.417  0.00  0.00     0.151 C 
ATOM     51  C4  ASG d 306      19.945  35.465  41.621  0.00  0.00     0.089 C 
ATOM     52  C6  ASG d 306      18.791  33.408  42.573  0.00  0.00     0.043 C 
ATOM     53  S   ASG d 306      21.607  34.184  40.125  0.00  0.00     0.252 S 
ATOM     54  O4  ASG d 306      21.182  34.754  41.544  0.00  0.00    -0.249 OA
ATOM     55  OSB ASG d 306      22.893  33.523  40.249  0.00  0.00    -0.572 OA
ATOM     56  OSA ASG d 306      20.612  33.226  39.678  0.00  0.00    -0.572 OA
ATOM     57  C3  ASG d 306      20.264  36.977  41.905  0.00  0.00    -0.014 C 
ATOM     58  C7  ASG d 306      22.600  38.697  44.288  0.00  0.00     0.214 C 
ATOM     59  N   ASG d 306      21.336  38.369  43.790  0.00  0.00    -0.352 N 
ATOM     60  C8  ASG d 306      22.707  40.147  44.688  0.00  0.00    -0.003 C 
ATOM     61  C2  ASG d 306      21.014  36.975  43.349  0.00  0.00     0.062 C 
ATOM     62  O5  ASG d 306      19.869  34.951  44.042  0.00  0.00    -0.349 OA
ATOM     63  O6  ASG d 306      18.122  32.859  43.707  0.00  0.00    -0.398 OA
ATOM     64  O7  ASG d 306      23.531  37.906  44.402  0.00  0.00    -0.274 OA
ATOM     65  OSC ASG d 306      21.701  35.267  39.172  0.00  0.00    -0.572 OA
ATOM     66  C5  ASG d 306      19.113  34.869  42.795  0.00  0.00     0.088 C 
ATOM     67  H   ASG d 306      19.286  36.842  44.555  0.00  0.00     0.132 H 
ATOM     68  H   ASG d 306      19.391  35.379  40.709  0.00  0.00     0.089 H 
ATOM     69  H   ASG d 306      19.701  32.869  42.407  0.00  0.00     0.078 H 
ATOM     70  H   ASG d 306      18.149  33.323  41.721  0.00  0.00     0.078 H 
ATOM     71  H   ASG d 306      19.362  37.551  41.950  0.00  0.00     0.040 H 
ATOM     72  H   ASG d 306      20.865  37.415  41.136  0.00  0.00     0.040 H 
ATOM     73  H   ASG d 306      20.644  39.067  43.729  0.00  0.00     0.163 HD
ATOM     74  H   ASG d 306      21.775  40.639  44.498  0.00  0.00     0.040 H 
ATOM     75  H   ASG d 306      23.481  40.618  44.119  0.00  0.00     0.040 H 
ATOM     76  H   ASG d 306      22.939  40.214  45.730  0.00  0.00     0.040 H 
ATOM     77  H   ASG d 306      21.917  36.417  43.209  0.00  0.00     0.080 H 
ATOM     78  H   ASG d 306      18.695  32.930  44.486  0.00  0.00     0.209 HD
ATOM     79  H   ASG d 306      18.207  35.438  42.845  0.00  0.00     0.090 H 
ATOM     80  C5  BDP d 305      20.577  36.820  47.928  0.00  0.00     0.152 C 
ATOM     81  O6B BDP d 305      18.337  37.509  47.785  0.00  0.00    -0.646 OA
ATOM     82  C6  BDP d 305      19.518  37.870  47.621  0.00  0.00     0.206 C 
ATOM     83  O4  BDP d 305      20.943  36.311  45.596  0.00  0.00    -0.348 OA
ATOM     84  O3  BDP d 305      21.940  33.724  46.223  0.00  0.00    -0.390 OA
ATOM     85  C2  BDP d 305      21.355  34.081  48.514  0.00  0.00     0.110 C 
ATOM     86  C1  BDP d 305      21.177  35.150  49.602  0.00  0.00     0.160 C 
ATOM     87  C4  BDP d 305      20.695  35.739  46.828  0.00  0.00     0.103 C 
ATOM     88  O6A BDP d 305      19.974  38.974  47.235  0.00  0.00    -0.646 OA
ATOM     89  C3  BDP d 305      21.797  34.738  47.221  0.00  0.00     0.092 C 
ATOM     90  O2  BDP d 305      22.322  33.130  48.968  0.00  0.00    -0.388 OA
ATOM     91  O5  BDP d 305      20.215  36.166  49.183  0.00  0.00    -0.340 OA
ATOM     92  H   BDP d 305      21.523  37.317  47.986  0.00  0.00     0.104 H 
ATOM     93  H   BDP d 305      22.637  33.104  46.489  0.00  0.00     0.210 HD
ATOM     94  H   BDP d 305      20.431  33.576  48.326  0.00  0.00     0.094 H 
ATOM     95  H   BDP d 305      22.127  35.615  49.764  0.00  0.00     0.133 H 
ATOM     96  H   BDP d 305      19.766  35.216  46.745  0.00  0.00     0.092 H 
ATOM     97  H   BDP d 305      22.733  35.245  47.324  0.00  0.00     0.091 H 
ATOM     98  H   BDP d 305      23.163  33.582  49.141  0.00  0.00     0.210 HD
ATOM     99  O6B BDP d 301       8.209  40.247  56.898  0.00  0.00    -0.646 OA
ATOM    100  C6  BDP d 301       7.760  39.090  57.056  0.00  0.00     0.206 C 
ATOM    101  O6A BDP d 301       8.234  38.129  57.699  0.00  0.00    -0.646 OA
ATOM    102  O5  BDP d 301       5.509  39.868  56.691  0.00  0.00    -0.340 OA
ATOM    103  C5  BDP d 301       6.433  38.806  56.364  0.00  0.00     0.152 C 
ATOM    104  C3  BDP d 301       5.142  38.415  54.252  0.00  0.00     0.092 C 
ATOM    105  C1  BDP d 301       4.191  39.687  56.089  0.00  0.00     0.156 C 
ATOM    106  O1  BDP d 301       3.338  40.840  56.559  0.00  0.00    -0.368 OA
ATOM    107  C4  BDP d 301       6.552  38.651  54.848  0.00  0.00     0.103 C 
ATOM    108  C2  BDP d 301       4.258  39.605  54.592  0.00  0.00     0.110 C 
ATOM    109  O2  BDP d 301       2.935  39.430  54.089  0.00  0.00    -0.388 OA
ATOM    110  O4  BDP d 301       7.293  37.498  54.676  0.00  0.00    -0.348 OA
ATOM    111  O3  BDP d 301       5.227  38.291  52.831  0.00  0.00    -0.390 OA
ATOM    112  H   BDP d 301       6.077  37.862  56.721  0.00  0.00     0.104 H 
ATOM    113  H   BDP d 301       4.730  37.516  54.661  0.00  0.00     0.091 H 
ATOM    114  H   BDP d 301       3.764  38.755  56.394  0.00  0.00     0.133 H 
ATOM    115  H   BDP d 301       3.738  41.676  56.274  0.00  0.00     0.212 HD
ATOM    116  H   BDP d 301       6.990  39.509  54.381  0.00  0.00     0.092 H 
ATOM    117  H   BDP d 301       4.666  40.492  54.153  0.00  0.00     0.094 H 
ATOM    118  H   BDP d 301       2.546  38.630  54.475  0.00  0.00     0.210 HD
ATOM    119  H   BDP d 301       5.601  39.105  52.457  0.00  0.00     0.210 HD
ATOM    120  OSC ASG d 304      21.797  31.524  53.979  0.00  0.00    -0.572 OA
ATOM    121  O3  ASG d 304      20.722  34.555  50.799  0.00  0.00    -0.348 OA
ATOM    122  C5  ASG d 304      18.041  31.922  51.099  0.00  0.00     0.090 C 
ATOM    123  C6  ASG d 304      17.974  30.463  51.480  0.00  0.00     0.043 C 
ATOM    124  O4  ASG d 304      20.002  32.336  52.470  0.00  0.00    -0.246 OA
ATOM    125  C7  ASG d 304      18.245  37.179  52.307  0.00  0.00     0.214 C 
ATOM    126  C8  ASG d 304      18.195  38.559  51.693  0.00  0.00    -0.003 C 
ATOM    127  S   ASG d 304      21.341  31.477  52.604  0.00  0.00     0.252 S 
ATOM    128  OSB ASG d 304      21.085  30.100  52.223  0.00  0.00    -0.572 OA
ATOM    129  N   ASG d 304      18.439  36.179  51.365  0.00  0.00    -0.349 N 
ATOM    130  C4  ASG d 304      19.477  32.494  51.143  0.00  0.00     0.114 C 
ATOM    131  C3  ASG d 304      19.422  33.989  50.764  0.00  0.00     0.094 C 
ATOM    132  C1  ASG d 304      17.131  34.089  51.687  0.00  0.00     0.154 C 
ATOM    133  O7  ASG d 304      18.123  36.980  53.505  0.00  0.00    -0.274 OA
ATOM    134  O6  ASG d 304      16.757  29.875  51.018  0.00  0.00    -0.398 OA
ATOM    135  O5  ASG d 304      17.176  32.667  52.008  0.00  0.00    -0.349 OA
ATOM    136  C2  ASG d 304      18.522  34.728  51.741  0.00  0.00     0.087 C 
ATOM    137  OSA ASG d 304      22.363  32.028  51.729  0.00  0.00    -0.572 OA
ATOM    138  H   ASG d 304      17.714  32.018  50.085  0.00  0.00     0.090 H 
ATOM    139  H   ASG d 304      18.024  30.376  52.545  0.00  0.00     0.078 H 
ATOM    140  H   ASG d 304      18.797  29.952  51.027  0.00  0.00     0.078 H 
ATOM    141  H   ASG d 304      18.325  38.483  50.633  0.00  0.00     0.040 H 
ATOM    142  H   ASG d 304      18.977  39.161  52.106  0.00  0.00     0.040 H 
ATOM    143  H   ASG d 304      17.248  39.010  51.905  0.00  0.00     0.040 H 
ATOM    144  H   ASG d 304      18.526  36.431  50.418  0.00  0.00     0.163 HD
ATOM    145  H   ASG d 304      20.111  31.977  50.454  0.00  0.00     0.093 H 
ATOM    146  H   ASG d 304      19.031  34.079  49.772  0.00  0.00     0.091 H 
ATOM    147  H   ASG d 304      16.761  34.201  50.688  0.00  0.00     0.132 H 
ATOM    148  H   ASG d 304      16.003  30.332  51.424  0.00  0.00     0.209 HD
ATOM    149  H   ASG d 304      18.919  34.661  52.732  0.00  0.00     0.084 H 
ENDROOT
TORSDOF 38
ENDMDL
MODEL 74
REMARK VINA RESULT:      -4.5      5.976      9.640
REMARK  0 active torsions:
REMARK  status: ('A' for Active; 'I' for Inactive)
REMARK       I    between atoms: C6_2  and  C5_74 
REMARK       I    between atoms: C1_3  and  O4_24 
REMARK       I    between atoms: O6_4  and  C6_26 
REMARK       I    between atoms: C5_5  and  C6_12 
REMARK       I    between atoms: C4_6  and  O4_22 
REMARK       I    between atoms: C6_8  and  C5_90 
REMARK       I    between atoms: C6_8  and  O6_83 
REMARK       I    between atoms: O3_11  and  C3_60 
REMARK       I    between atoms: O3_11  and  C1_29 
REMARK       I    between atoms: C5_13  and  C6_18 
REMARK       I    between atoms: O4_14  and  C4_88 
REMARK       I    between atoms: O4_14  and  S_15 
REMARK       I    between atoms: C6_16  and  C5_28 
REMARK       I    between atoms: S_17  and  O4_22 
REMARK       I    between atoms: C6_18  and  O6_66 
REMARK       I    between atoms: O4_20  and  C4_46 
REMARK       I    between atoms: O4_20  and  C1_61 
REMARK       I    between atoms: O4_21  and  C4_54 
REMARK       I    between atoms: O4_21  and  S_40 
REMARK       I    between atoms: O4_24  and  C4_35 
REMARK       I    between atoms: O3_25  and  C3_48 
REMARK       I    between atoms: C6_26  and  C5_50 
REMARK       I    between atoms: C2_27  and  O2_55 
REMARK       I    between atoms: O3_31  and  C3_37 
REMARK       I    between atoms: C2_32  and  N_72 
REMARK       I    between atoms: C7_33  and  C8_39 
REMARK       I    between atoms: C7_33  and  N_52 
REMARK       I    between atoms: C1_34  and  O4_86 
REMARK       I    between atoms: C3_36  and  O3_87 
REMARK       I    between atoms: C2_47  and  O2_85 
REMARK       I    between atoms: N_52  and  C2_71 
REMARK       I    between atoms: C3_53  and  O3_81 
REMARK       I    between atoms: C1_56  and  O3_81 
REMARK       I    between atoms: C7_57  and  C8_64 
REMARK       I    between atoms: C7_57  and  N_63 
REMARK       I    between atoms: C8_58  and  C7_73 
REMARK       I    between atoms: C1_59  and  O1_68 
REMARK       I    between atoms: N_63  and  C2_67 
REMARK       I    between atoms: C4_69  and  O4_86 
REMARK       I    between atoms: N_72  and  C7_73 
REMARK       I    between atoms: C2_77  and  O2_82 
ROOT
ATOM      1  OSB ASG d 302      18.201  35.695  49.267  0.00  0.00    -0.572 OA
ATOM      2  O6  ASG d 302      18.605  31.439  50.284  0.00  0.00    -0.398 OA
ATOM      3  O4  ASG d 302      17.836  35.453  51.715  0.00  0.00    -0.246 OA
ATOM      4  S   ASG d 302      17.664  36.385  50.424  0.00  0.00     0.252 S 
ATOM      5  C6  ASG d 302      18.273  32.813  50.459  0.00  0.00     0.043 C 
ATOM      6  C2  ASG d 302      17.461  34.463  54.333  0.00  0.00     0.087 C 
ATOM      7  C1  ASG d 302      18.207  33.150  54.145  0.00  0.00     0.154 C 
ATOM      8  O5  ASG d 302      18.700  32.998  52.795  0.00  0.00    -0.349 OA
ATOM      9  C5  ASG d 302      17.642  33.038  51.809  0.00  0.00     0.090 C 
ATOM     10  O7  ASG d 302      17.892  36.611  56.202  0.00  0.00    -0.274 OA
ATOM     11  C3  ASG d 302      16.314  34.487  53.339  0.00  0.00     0.094 C 
ATOM     12  C8  ASG d 302      16.575  35.546  57.905  0.00  0.00    -0.003 C 
ATOM     13  OSA ASG d 302      16.261  36.684  50.205  0.00  0.00    -0.572 OA
ATOM     14  N   ASG d 302      16.937  34.556  55.728  0.00  0.00    -0.349 N 
ATOM     15  C7  ASG d 302      17.213  35.653  56.539  0.00  0.00     0.214 C 
ATOM     16  OSC ASG d 302      18.392  37.616  50.629  0.00  0.00    -0.572 OA
ATOM     17  O3  ASG d 302      15.675  35.705  53.469  0.00  0.00    -0.348 OA
ATOM     18  C4  ASG d 302      16.893  34.383  51.918  0.00  0.00     0.114 C 
ATOM     19  H   ASG d 302      19.009  31.313  49.412  0.00  0.00     0.209 HD
ATOM     20  H   ASG d 302      17.584  33.109  49.695  0.00  0.00     0.078 H 
ATOM     21  H   ASG d 302      19.168  33.395  50.395  0.00  0.00     0.078 H 
ATOM     22  H   ASG d 302      18.114  35.295  54.167  0.00  0.00     0.084 H 
ATOM     23  H   ASG d 302      17.517  32.358  54.353  0.00  0.00     0.132 H 
ATOM     24  H   ASG d 302      16.910  32.275  51.967  0.00  0.00     0.090 H 
ATOM     25  H   ASG d 302      15.636  33.678  53.516  0.00  0.00     0.091 H 
ATOM     26  H   ASG d 302      16.820  36.413  58.482  0.00  0.00     0.040 H 
ATOM     27  H   ASG d 302      16.942  34.671  58.401  0.00  0.00     0.040 H 
ATOM     28  H   ASG d 302      15.513  35.477  57.798  0.00  0.00     0.040 H 
ATOM     29  H   ASG d 302      16.384  33.824  56.083  0.00  0.00     0.163 HD
ATOM     30  H   ASG d 302      16.112  34.444  51.188  0.00  0.00     0.093 H 
ATOM     31  C6  BDP d 303      11.608  34.120  51.707  0.00  0.00     0.206 C 
ATOM     32  O4  BDP d 303      10.252  36.135  53.417  0.00  0.00    -0.348 OA
ATOM     33  O3  BDP d 303      11.773  38.209  54.602  0.00  0.00    -0.390 OA
ATOM     34  C3  BDP d 303      12.299  36.893  54.362  0.00  0.00     0.092 C 
ATOM     35  O6B BDP d 303      11.527  34.782  50.652  0.00  0.00    -0.646 OA
ATOM     36  C4  BDP d 303      11.606  36.259  53.147  0.00  0.00     0.103 C 
ATOM     37  C2  BDP d 303      13.780  37.002  54.057  0.00  0.00     0.110 C 
ATOM     38  O6A BDP d 303      11.265  32.937  51.936  0.00  0.00    -0.646 OA
ATOM     39  C1  BDP d 303      14.330  35.612  53.783  0.00  0.00     0.160 C 
ATOM     40  C5  BDP d 303      12.210  34.849  52.906  0.00  0.00     0.152 C 
ATOM     41  O5  BDP d 303      13.640  34.977  52.673  0.00  0.00    -0.340 OA
ATOM     42  O2  BDP d 303      14.479  37.565  55.171  0.00  0.00    -0.388 OA
ATOM     43  H   BDP d 303      12.217  38.599  55.370  0.00  0.00     0.210 HD
ATOM     44  H   BDP d 303      12.131  36.291  55.229  0.00  0.00     0.091 H 
ATOM     45  H   BDP d 303      11.750  36.869  52.280  0.00  0.00     0.092 H 
ATOM     46  H   BDP d 303      13.915  37.634  53.204  0.00  0.00     0.094 H 
ATOM     47  H   BDP d 303      14.185  35.020  54.662  0.00  0.00     0.133 H 
ATOM     48  H   BDP d 303      11.988  34.274  53.781  0.00  0.00     0.104 H 
ATOM     49  H   BDP d 303      14.361  36.996  55.948  0.00  0.00     0.210 HD
ATOM     50  C1  ASG d 306       5.312  33.406  46.151  0.00  0.00     0.151 C 
ATOM     51  C4  ASG d 306       5.277  33.714  43.235  0.00  0.00     0.089 C 
ATOM     52  C6  ASG d 306       6.645  35.816  43.656  0.00  0.00     0.043 C 
ATOM     53  S   ASG d 306       3.519  34.826  41.716  0.00  0.00     0.252 S 
ATOM     54  O4  ASG d 306       4.080  34.490  43.162  0.00  0.00    -0.249 OA
ATOM     55  OSB ASG d 306       2.293  35.593  41.852  0.00  0.00    -0.572 OA
ATOM     56  OSA ASG d 306       4.502  35.612  40.992  0.00  0.00    -0.572 OA
ATOM     57  C3  ASG d 306       4.914  32.305  43.829  0.00  0.00    -0.014 C 
ATOM     58  C7  ASG d 306       2.792  31.218  46.729  0.00  0.00     0.214 C 
ATOM     59  N   ASG d 306       4.003  31.357  46.045  0.00  0.00    -0.352 N 
ATOM     60  C8  ASG d 306       2.657  29.875  47.401  0.00  0.00    -0.003 C 
ATOM     61  C2  ASG d 306       4.344  32.621  45.319  0.00  0.00     0.062 C 
ATOM     62  O5  ASG d 306       5.671  34.645  45.495  0.00  0.00    -0.349 OA
ATOM     63  O6  ASG d 306       7.474  36.507  44.589  0.00  0.00    -0.398 OA
ATOM     64  O7  ASG d 306       1.925  32.085  46.794  0.00  0.00    -0.274 OA
ATOM     65  OSC ASG d 306       3.253  33.600  40.997  0.00  0.00    -0.572 OA
ATOM     66  C5  ASG d 306       6.275  34.446  44.180  0.00  0.00     0.088 C 
ATOM     67  H   ASG d 306       6.209  32.839  46.285  0.00  0.00     0.132 H 
ATOM     68  H   ASG d 306       5.721  33.593  42.269  0.00  0.00     0.089 H 
ATOM     69  H   ASG d 306       5.752  36.383  43.492  0.00  0.00     0.078 H 
ATOM     70  H   ASG d 306       7.184  35.699  42.739  0.00  0.00     0.078 H 
ATOM     71  H   ASG d 306       5.783  31.683  43.882  0.00  0.00     0.040 H 
ATOM     72  H   ASG d 306       4.203  31.783  43.225  0.00  0.00     0.040 H 
ATOM     73  H   ASG d 306       4.644  30.610  46.041  0.00  0.00     0.163 HD
ATOM     74  H   ASG d 306       3.531  29.289  47.207  0.00  0.00     0.040 H 
ATOM     75  H   ASG d 306       1.795  29.369  47.017  0.00  0.00     0.040 H 
ATOM     76  H   ASG d 306       2.548  30.014  48.457  0.00  0.00     0.040 H 
ATOM     77  H   ASG d 306       3.462  33.211  45.177  0.00  0.00     0.080 H 
ATOM     78  H   ASG d 306       6.996  36.620  45.425  0.00  0.00     0.209 HD
ATOM     79  H   ASG d 306       7.148  33.829  44.237  0.00  0.00     0.090 H 
ATOM     80  C5  BDP d 305       5.335  33.560  49.714  0.00  0.00     0.152 C 
ATOM     81  O6B BDP d 305       7.501  32.692  49.461  0.00  0.00    -0.646 OA
ATOM     82  C6  BDP d 305       6.292  32.397  49.496  0.00  0.00     0.206 C 
ATOM     83  O4  BDP d 305       4.719  33.670  47.382  0.00  0.00    -0.348 OA
ATOM     84  O3  BDP d 305       3.945  36.394  47.620  0.00  0.00    -0.390 OA
ATOM     85  C2  BDP d 305       4.781  36.410  49.860  0.00  0.00     0.110 C 
ATOM     86  C1  BDP d 305       5.031  35.543  51.103  0.00  0.00     0.160 C 
ATOM     87  C4  BDP d 305       5.144  34.432  48.452  0.00  0.00     0.103 C 
ATOM     88  O6A BDP d 305       5.735  31.278  49.375  0.00  0.00    -0.646 OA
ATOM     89  C3  BDP d 305       4.152  35.568  48.768  0.00  0.00     0.092 C 
ATOM     90  O2  BDP d 305       3.927  37.496  50.232  0.00  0.00    -0.388 OA
ATOM     91  O5  BDP d 305       5.880  34.399  50.779  0.00  0.00    -0.340 OA
ATOM     92  H   BDP d 305       4.378  33.153  49.966  0.00  0.00     0.104 H 
ATOM     93  H   BDP d 305       3.319  37.102  47.840  0.00  0.00     0.210 HD
ATOM     94  H   BDP d 305       5.701  36.803  49.483  0.00  0.00     0.094 H 
ATOM     95  H   BDP d 305       4.084  35.187  51.451  0.00  0.00     0.133 H 
ATOM     96  H   BDP d 305       6.083  34.862  48.172  0.00  0.00     0.092 H 
ATOM     97  H   BDP d 305       3.210  35.158  49.064  0.00  0.00     0.091 H 
ATOM     98  H   BDP d 305       3.090  37.147  50.575  0.00  0.00     0.210 HD
ATOM     99  O6B BDP d 301      18.490  30.880  57.774  0.00  0.00    -0.646 OA
ATOM    100  C6  BDP d 301      19.016  32.010  57.664  0.00  0.00     0.206 C 
ATOM    101  O6A BDP d 301      18.675  33.104  58.164  0.00  0.00    -0.646 OA
ATOM    102  O5  BDP d 301      21.162  31.014  57.210  0.00  0.00    -0.340 OA
ATOM    103  C5  BDP d 301      20.263  32.066  56.792  0.00  0.00     0.152 C 
ATOM    104  C3  BDP d 301      21.311  31.976  54.517  0.00  0.00     0.092 C 
ATOM    105  C1  BDP d 301      22.406  30.985  56.445  0.00  0.00     0.156 C 
ATOM    106  O1  BDP d 301      23.246  29.875  57.026  0.00  0.00    -0.368 OA
ATOM    107  C4  BDP d 301      19.971  31.955  55.295  0.00  0.00     0.103 C 
ATOM    108  C2  BDP d 301      22.164  30.802  54.975  0.00  0.00     0.110 C 
ATOM    109  O2  BDP d 301      23.424  30.785  54.308  0.00  0.00    -0.388 OA
ATOM    110  O4  BDP d 301      19.278  33.112  54.992  0.00  0.00    -0.348 OA
ATOM    111  O3  BDP d 301      21.062  31.849  53.115  0.00  0.00    -0.390 OA
ATOM    112  H   BDP d 301      20.709  33.029  56.926  0.00  0.00     0.104 H 
ATOM    113  H   BDP d 301      21.816  32.900  54.704  0.00  0.00     0.091 H 
ATOM    114  H   BDP d 301      22.915  31.923  56.523  0.00  0.00     0.133 H 
ATOM    115  H   BDP d 301      22.770  29.034  56.947  0.00  0.00     0.212 HD
ATOM    116  H   BDP d 301      19.436  31.064  55.047  0.00  0.00     0.092 H 
ATOM    117  H   BDP d 301      21.660  29.885  54.756  0.00  0.00     0.094 H 
ATOM    118  H   BDP d 301      23.899  31.611  54.494  0.00  0.00     0.210 HD
ATOM    119  H   BDP d 301      20.603  31.012  52.942  0.00  0.00     0.210 HD
ATOM    120  OSC ASG d 304       5.136  39.930  54.768  0.00  0.00    -0.572 OA
ATOM    121  O3  ASG d 304       5.658  36.307  52.111  0.00  0.00    -0.348 OA
ATOM    122  C5  ASG d 304       8.492  38.744  51.624  0.00  0.00     0.090 C 
ATOM    123  C6  ASG d 304       8.682  40.238  51.717  0.00  0.00     0.043 C 
ATOM    124  O4  ASG d 304       6.690  38.729  53.252  0.00  0.00    -0.246 OA
ATOM    125  C7  ASG d 304       8.154  33.818  53.806  0.00  0.00     0.214 C 
ATOM    126  C8  ASG d 304       8.056  32.350  53.458  0.00  0.00    -0.003 C 
ATOM    127  S   ASG d 304       5.425  39.695  53.368  0.00  0.00     0.252 S 
ATOM    128  OSB ASG d 304       5.707  40.959  52.711  0.00  0.00    -0.572 OA
ATOM    129  N   ASG d 304       7.901  34.645  52.720  0.00  0.00    -0.349 N 
ATOM    130  C4  ASG d 304       7.043  38.297  51.929  0.00  0.00     0.114 C 
ATOM    131  C3  ASG d 304       6.972  36.759  51.831  0.00  0.00     0.094 C 
ATOM    132  C1  ASG d 304       9.349  36.655  52.503  0.00  0.00     0.154 C 
ATOM    133  O7  ASG d 304       8.430  34.218  54.925  0.00  0.00    -0.274 OA
ATOM    134  O6  ASG d 304       9.865  40.641  51.024  0.00  0.00    -0.398 OA
ATOM    135  O5  ASG d 304       9.419  38.110  52.556  0.00  0.00    -0.349 OA
ATOM    136  C2  ASG d 304       7.942  36.142  52.826  0.00  0.00     0.087 C 
ATOM    137  OSA ASG d 304       4.278  39.075  52.727  0.00  0.00    -0.572 OA
ATOM    138  H   ASG d 304       8.690  38.443  50.616  0.00  0.00     0.090 H 
ATOM    139  H   ASG d 304       8.765  40.518  52.745  0.00  0.00     0.078 H 
ATOM    140  H   ASG d 304       7.840  40.720  51.268  0.00  0.00     0.078 H 
ATOM    141  H   ASG d 304       7.803  32.245  52.423  0.00  0.00     0.040 H 
ATOM    142  H   ASG d 304       7.298  31.892  54.058  0.00  0.00     0.040 H 
ATOM    143  H   ASG d 304       8.996  31.875  53.646  0.00  0.00     0.040 H 
ATOM    144  H   ASG d 304       7.688  34.235  51.851  0.00  0.00     0.163 HD
ATOM    145  H   ASG d 304       6.359  38.729  51.228  0.00  0.00     0.093 H 
ATOM    146  H   ASG d 304       7.236  36.464  50.837  0.00  0.00     0.091 H 
ATOM    147  H   ASG d 304       9.590  36.339  51.509  0.00  0.00     0.132 H 
ATOM    148  H   ASG d 304      10.637  40.209  51.424  0.00  0.00     0.209 HD
ATOM    149  H   ASG d 304       7.671  36.415  53.824  0.00  0.00     0.084 H 
ENDROOT
TORSDOF 38
ENDMDL
MODEL 75
REMARK VINA RESULT:      -4.3      4.822     15.747
REMARK  0 active torsions:
REMARK  status: ('A' for Active; 'I' for Inactive)
REMARK       I    between atoms: C6_2  and  C5_74 
REMARK       I    between atoms: C1_3  and  O4_24 
REMARK       I    between atoms: O6_4  and  C6_26 
REMARK       I    between atoms: C5_5  and  C6_12 
REMARK       I    between atoms: C4_6  and  O4_22 
REMARK       I    between atoms: C6_8  and  C5_90 
REMARK       I    between atoms: C6_8  and  O6_83 
REMARK       I    between atoms: O3_11  and  C3_60 
REMARK       I    between atoms: O3_11  and  C1_29 
REMARK       I    between atoms: C5_13  and  C6_18 
REMARK       I    between atoms: O4_14  and  C4_88 
REMARK       I    between atoms: O4_14  and  S_15 
REMARK       I    between atoms: C6_16  and  C5_28 
REMARK       I    between atoms: S_17  and  O4_22 
REMARK       I    between atoms: C6_18  and  O6_66 
REMARK       I    between atoms: O4_20  and  C4_46 
REMARK       I    between atoms: O4_20  and  C1_61 
REMARK       I    between atoms: O4_21  and  C4_54 
REMARK       I    between atoms: O4_21  and  S_40 
REMARK       I    between atoms: O4_24  and  C4_35 
REMARK       I    between atoms: O3_25  and  C3_48 
REMARK       I    between atoms: C6_26  and  C5_50 
REMARK       I    between atoms: C2_27  and  O2_55 
REMARK       I    between atoms: O3_31  and  C3_37 
REMARK       I    between atoms: C2_32  and  N_72 
REMARK       I    between atoms: C7_33  and  C8_39 
REMARK       I    between atoms: C7_33  and  N_52 
REMARK       I    between atoms: C1_34  and  O4_86 
REMARK       I    between atoms: C3_36  and  O3_87 
REMARK       I    between atoms: C2_47  and  O2_85 
REMARK       I    between atoms: N_52  and  C2_71 
REMARK       I    between atoms: C3_53  and  O3_81 
REMARK       I    between atoms: C1_56  and  O3_81 
REMARK       I    between atoms: C7_57  and  C8_64 
REMARK       I    between atoms: C7_57  and  N_63 
REMARK       I    between atoms: C8_58  and  C7_73 
REMARK       I    between atoms: C1_59  and  O1_68 
REMARK       I    between atoms: N_63  and  C2_67 
REMARK       I    between atoms: C4_69  and  O4_86 
REMARK       I    between atoms: N_72  and  C7_73 
REMARK       I    between atoms: C2_77  and  O2_82 
ROOT
ATOM      1  OSB ASG d 302       8.013  40.723  51.559  0.00  0.00    -0.572 OA
ATOM      2  O6  ASG d 302       7.688  38.868  55.530  0.00  0.00    -0.398 OA
ATOM      3  O4  ASG d 302       6.522  38.743  51.361  0.00  0.00    -0.246 OA
ATOM      4  S   ASG d 302       7.423  39.819  50.591  0.00  0.00     0.252 S 
ATOM      5  C6  ASG d 302       7.563  38.994  54.117  0.00  0.00     0.043 C 
ATOM      6  C2  ASG d 302       5.034  36.390  51.834  0.00  0.00     0.087 C 
ATOM      7  C1  ASG d 302       4.881  36.563  53.338  0.00  0.00     0.154 C 
ATOM      8  O5  ASG d 302       5.554  37.751  53.815  0.00  0.00    -0.349 OA
ATOM      9  C5  ASG d 302       6.971  37.741  53.523  0.00  0.00     0.090 C 
ATOM     10  O7  ASG d 302       3.046  36.125  49.768  0.00  0.00    -0.274 OA
ATOM     11  C3  ASG d 302       6.519  36.323  51.527  0.00  0.00     0.094 C 
ATOM     12  C8  ASG d 302       2.864  33.752  50.088  0.00  0.00    -0.003 C 
ATOM     13  OSA ASG d 302       8.474  39.151  49.845  0.00  0.00    -0.572 OA
ATOM     14  N   ASG d 302       4.358  35.133  51.395  0.00  0.00    -0.349 N 
ATOM     15  C7  ASG d 302       3.410  35.131  50.376  0.00  0.00     0.214 C 
ATOM     16  OSC ASG d 302       6.589  40.570  49.680  0.00  0.00    -0.572 OA
ATOM     17  O3  ASG d 302       6.657  36.226  50.155  0.00  0.00    -0.348 OA
ATOM     18  C4  ASG d 302       7.178  37.630  51.998  0.00  0.00     0.114 C 
ATOM     19  H   ASG d 302       8.070  39.681  55.894  0.00  0.00     0.209 HD
ATOM     20  H   ASG d 302       8.530  39.161  53.691  0.00  0.00     0.078 H 
ATOM     21  H   ASG d 302       6.916  39.818  53.899  0.00  0.00     0.078 H 
ATOM     22  H   ASG d 302       4.584  37.208  51.312  0.00  0.00     0.084 H 
ATOM     23  H   ASG d 302       5.319  35.706  53.804  0.00  0.00     0.132 H 
ATOM     24  H   ASG d 302       7.469  36.899  53.955  0.00  0.00     0.090 H 
ATOM     25  H   ASG d 302       6.975  35.488  52.017  0.00  0.00     0.091 H 
ATOM     26  H   ASG d 302       2.143  33.812  49.300  0.00  0.00     0.040 H 
ATOM     27  H   ASG d 302       2.399  33.361  50.969  0.00  0.00     0.040 H 
ATOM     28  H   ASG d 302       3.664  33.107  49.790  0.00  0.00     0.040 H 
ATOM     29  H   ASG d 302       4.589  34.284  51.837  0.00  0.00     0.163 HD
ATOM     30  H   ASG d 302       8.220  37.635  51.754  0.00  0.00     0.093 H 
ATOM     31  C6  BDP d 303      10.914  34.231  50.406  0.00  0.00     0.206 C 
ATOM     32  O4  BDP d 303      10.259  32.861  47.852  0.00  0.00    -0.348 OA
ATOM     33  O3  BDP d 303       8.048  33.748  46.321  0.00  0.00    -0.390 OA
ATOM     34  C3  BDP d 303       8.081  33.813  47.756  0.00  0.00     0.092 C 
ATOM     35  O6B BDP d 303      11.626  35.115  49.889  0.00  0.00    -0.646 OA
ATOM     36  C4  BDP d 303       9.527  33.971  48.247  0.00  0.00     0.103 C 
ATOM     37  C2  BDP d 303       7.293  35.024  48.214  0.00  0.00     0.110 C 
ATOM     38  O6A BDP d 303      11.166  33.454  51.355  0.00  0.00    -0.646 OA
ATOM     39  C1  BDP d 303       7.345  35.103  49.731  0.00  0.00     0.160 C 
ATOM     40  C5  BDP d 303       9.524  34.056  49.797  0.00  0.00     0.152 C 
ATOM     41  O5  BDP d 303       8.714  35.191  50.210  0.00  0.00    -0.340 OA
ATOM     42  O2  BDP d 303       5.926  34.914  47.804  0.00  0.00    -0.388 OA
ATOM     43  H   BDP d 303       7.131  33.648  46.023  0.00  0.00     0.210 HD
ATOM     44  H   BDP d 303       7.661  32.912  48.152  0.00  0.00     0.091 H 
ATOM     45  H   BDP d 303       9.962  34.858  47.835  0.00  0.00     0.092 H 
ATOM     46  H   BDP d 303       7.719  35.904  47.777  0.00  0.00     0.094 H 
ATOM     47  H   BDP d 303       6.901  34.213  50.123  0.00  0.00     0.133 H 
ATOM     48  H   BDP d 303       9.131  33.124  50.147  0.00  0.00     0.104 H 
ATOM     49  H   BDP d 303       5.533  34.119  48.197  0.00  0.00     0.210 HD
ATOM     50  C1  ASG d 306      19.274  33.644  49.517  0.00  0.00     0.151 C 
ATOM     51  C4  ASG d 306      21.361  35.703  49.570  0.00  0.00     0.089 C 
ATOM     52  C6  ASG d 306      19.802  37.017  48.050  0.00  0.00     0.043 C 
ATOM     53  S   ASG d 306      23.462  35.958  48.100  0.00  0.00     0.252 S 
ATOM     54  O4  ASG d 306      22.092  35.231  48.437  0.00  0.00    -0.249 OA
ATOM     55  OSB ASG d 306      24.061  35.322  46.941  0.00  0.00    -0.572 OA
ATOM     56  OSA ASG d 306      23.202  37.355  47.804  0.00  0.00    -0.572 OA
ATOM     57  C3  ASG d 306      21.400  34.590  50.678  0.00  0.00    -0.014 C 
ATOM     58  C7  ASG d 306      20.893  30.871  50.591  0.00  0.00     0.214 C 
ATOM     59  N   ASG d 306      20.556  32.172  50.971  0.00  0.00    -0.352 N 
ATOM     60  C8  ASG d 306      20.712  29.875  51.709  0.00  0.00    -0.003 C 
ATOM     61  C2  ASG d 306      20.651  33.312  50.005  0.00  0.00     0.062 C 
ATOM     62  O5  ASG d 306      19.310  34.740  48.573  0.00  0.00    -0.349 OA
ATOM     63  O6  ASG d 306      18.460  37.159  47.588  0.00  0.00    -0.398 OA
ATOM     64  O7  ASG d 306      21.288  30.551  49.473  0.00  0.00    -0.274 OA
ATOM     65  OSC ASG d 306      24.358  35.860  49.231  0.00  0.00    -0.572 OA
ATOM     66  C5  ASG d 306      19.890  35.960  49.128  0.00  0.00     0.088 C 
ATOM     67  H   ASG d 306      18.667  33.949  50.344  0.00  0.00     0.132 H 
ATOM     68  H   ASG d 306      21.784  36.608  49.955  0.00  0.00     0.089 H 
ATOM     69  H   ASG d 306      20.428  36.735  47.229  0.00  0.00     0.078 H 
ATOM     70  H   ASG d 306      20.125  37.953  48.459  0.00  0.00     0.078 H 
ATOM     71  H   ASG d 306      20.879  34.913  51.555  0.00  0.00     0.040 H 
ATOM     72  H   ASG d 306      22.398  34.359  50.985  0.00  0.00     0.040 H 
ATOM     73  H   ASG d 306      20.249  32.343  51.891  0.00  0.00     0.163 HD
ATOM     74  H   ASG d 306      20.362  30.382  52.584  0.00  0.00     0.040 H 
ATOM     75  H   ASG d 306      21.648  29.402  51.921  0.00  0.00     0.040 H 
ATOM     76  H   ASG d 306      19.998  29.135  51.415  0.00  0.00     0.040 H 
ATOM     77  H   ASG d 306      21.250  33.030  49.164  0.00  0.00     0.080 H 
ATOM     78  H   ASG d 306      18.156  36.317  47.215  0.00  0.00     0.209 HD
ATOM     79  H   ASG d 306      19.363  36.285  50.001  0.00  0.00     0.090 H 
ATOM     80  C5  BDP d 305      16.650  31.294  48.954  0.00  0.00     0.152 C 
ATOM     81  O6B BDP d 305      15.522  32.590  50.554  0.00  0.00    -0.646 OA
ATOM     82  C6  BDP d 305      16.354  31.677  50.398  0.00  0.00     0.206 C 
ATOM     83  O4  BDP d 305      18.736  32.510  48.916  0.00  0.00    -0.348 OA
ATOM     84  O3  BDP d 305      18.644  32.758  46.086  0.00  0.00    -0.390 OA
ATOM     85  C2  BDP d 305      16.458  31.790  46.096  0.00  0.00     0.110 C 
ATOM     86  C1  BDP d 305      15.529  30.820  46.841  0.00  0.00     0.160 C 
ATOM     87  C4  BDP d 305      17.553  32.319  48.230  0.00  0.00     0.103 C 
ATOM     88  O6A BDP d 305      16.994  31.020  51.254  0.00  0.00    -0.646 OA
ATOM     89  C3  BDP d 305      17.806  31.838  46.788  0.00  0.00     0.092 C 
ATOM     90  O2  BDP d 305      16.586  31.345  44.743  0.00  0.00    -0.388 OA
ATOM     91  O5  BDP d 305      15.379  31.210  48.240  0.00  0.00    -0.340 OA
ATOM     92  H   BDP d 305      17.174  30.361  48.965  0.00  0.00     0.104 H 
ATOM     93  H   BDP d 305      18.791  32.437  45.182  0.00  0.00     0.210 HD
ATOM     94  H   BDP d 305      16.052  32.780  46.102  0.00  0.00     0.094 H 
ATOM     95  H   BDP d 305      15.968  29.845  46.795  0.00  0.00     0.133 H 
ATOM     96  H   BDP d 305      17.058  33.266  48.195  0.00  0.00     0.092 H 
ATOM     97  H   BDP d 305      18.288  30.883  46.801  0.00  0.00     0.091 H 
ATOM     98  H   BDP d 305      16.954  30.448  44.731  0.00  0.00     0.210 HD
ATOM     99  O6B BDP d 301       2.425  33.525  55.108  0.00  0.00    -0.646 OA
ATOM    100  C6  BDP d 301       1.971  34.323  54.258  0.00  0.00     0.206 C 
ATOM    101  O6A BDP d 301       1.662  34.128  53.062  0.00  0.00    -0.646 OA
ATOM    102  O5  BDP d 301       1.023  35.699  55.993  0.00  0.00    -0.340 OA
ATOM    103  C5  BDP d 301       1.759  35.749  54.750  0.00  0.00     0.152 C 
ATOM    104  C3  BDP d 301       2.721  37.946  55.477  0.00  0.00     0.092 C 
ATOM    105  C1  BDP d 301       0.749  37.021  56.550  0.00  0.00     0.156 C 
ATOM    106  O1  BDP d 301      -0.058  36.803  57.807  0.00  0.00    -0.368 OA
ATOM    107  C4  BDP d 301       3.057  36.535  54.930  0.00  0.00     0.103 C 
ATOM    108  C2  BDP d 301       2.005  37.799  56.811  0.00  0.00     0.110 C 
ATOM    109  O2  BDP d 301       1.647  39.069  57.351  0.00  0.00    -0.388 OA
ATOM    110  O4  BDP d 301       3.555  36.676  53.649  0.00  0.00    -0.348 OA
ATOM    111  O3  BDP d 301       3.924  38.691  55.675  0.00  0.00    -0.390 OA
ATOM    112  H   BDP d 301       1.208  36.273  53.997  0.00  0.00     0.104 H 
ATOM    113  H   BDP d 301       2.098  38.459  54.774  0.00  0.00     0.091 H 
ATOM    114  H   BDP d 301       0.200  37.616  55.850  0.00  0.00     0.133 H 
ATOM    115  H   BDP d 301       0.453  36.263  58.429  0.00  0.00     0.212 HD
ATOM    116  H   BDP d 301       3.739  36.055  55.599  0.00  0.00     0.092 H 
ATOM    117  H   BDP d 301       2.650  37.309  57.512  0.00  0.00     0.094 H 
ATOM    118  H   BDP d 301       1.062  39.530  56.730  0.00  0.00     0.210 HD
ATOM    119  H   BDP d 301       4.491  38.227  56.311  0.00  0.00     0.210 HD
ATOM    120  OSC ASG d 304      12.098  29.876  42.365  0.00  0.00    -0.572 OA
ATOM    121  O3  ASG d 304      14.255  30.802  46.231  0.00  0.00    -0.348 OA
ATOM    122  C5  ASG d 304      12.319  33.804  45.027  0.00  0.00     0.090 C 
ATOM    123  C6  ASG d 304      11.885  34.367  43.695  0.00  0.00     0.043 C 
ATOM    124  O4  ASG d 304      12.348  31.516  44.209  0.00  0.00    -0.246 OA
ATOM    125  C7  ASG d 304      11.754  30.448  49.217  0.00  0.00     0.214 C 
ATOM    126  C8  ASG d 304      12.308  30.127  50.586  0.00  0.00    -0.003 C 
ATOM    127  S   ASG d 304      12.956  30.936  42.853  0.00  0.00     0.252 S 
ATOM    128  OSB ASG d 304      13.041  31.990  41.858  0.00  0.00    -0.572 OA
ATOM    129  N   ASG d 304      12.578  31.297  48.491  0.00  0.00    -0.349 N 
ATOM    130  C4  ASG d 304      13.140  32.500  44.894  0.00  0.00     0.114 C 
ATOM    131  C3  ASG d 304      13.505  32.003  46.308  0.00  0.00     0.094 C 
ATOM    132  C1  ASG d 304      11.443  33.066  47.161  0.00  0.00     0.154 C 
ATOM    133  O7  ASG d 304      10.694  30.004  48.808  0.00  0.00    -0.274 OA
ATOM    134  O6  ASG d 304      11.529  35.744  43.821  0.00  0.00    -0.398 OA
ATOM    135  O5  ASG d 304      11.124  33.564  45.828  0.00  0.00    -0.349 OA
ATOM    136  C2  ASG d 304      12.234  31.755  47.103  0.00  0.00     0.087 C 
ATOM    137  OSA ASG d 304      14.290  30.412  43.102  0.00  0.00    -0.572 OA
ATOM    138  H   ASG d 304      12.965  34.515  45.496  0.00  0.00     0.090 H 
ATOM    139  H   ASG d 304      11.038  33.817  43.341  0.00  0.00     0.078 H 
ATOM    140  H   ASG d 304      12.697  34.282  43.005  0.00  0.00     0.078 H 
ATOM    141  H   ASG d 304      13.244  30.628  50.720  0.00  0.00     0.040 H 
ATOM    142  H   ASG d 304      12.454  29.071  50.673  0.00  0.00     0.040 H 
ATOM    143  H   ASG d 304      11.618  30.454  51.336  0.00  0.00     0.040 H 
ATOM    144  H   ASG d 304      13.416  31.609  48.901  0.00  0.00     0.163 HD
ATOM    145  H   ASG d 304      14.037  32.673  44.336  0.00  0.00     0.093 H 
ATOM    146  H   ASG d 304      14.096  32.751  46.794  0.00  0.00     0.091 H 
ATOM    147  H   ASG d 304      12.053  33.791  47.658  0.00  0.00     0.132 H 
ATOM    148  H   ASG d 304      10.792  35.833  44.446  0.00  0.00     0.209 HD
ATOM    149  H   ASG d 304      11.648  30.992  46.634  0.00  0.00     0.084 H 
ENDROOT
TORSDOF 38
ENDMDL
MODEL 76
REMARK VINA RESULT:      -4.2      8.771     13.954
REMARK  0 active torsions:
REMARK  status: ('A' for Active; 'I' for Inactive)
REMARK       I    between atoms: C6_2  and  C5_74 
REMARK       I    between atoms: C1_3  and  O4_24 
REMARK       I    between atoms: O6_4  and  C6_26 
REMARK       I    between atoms: C5_5  and  C6_12 
REMARK       I    between atoms: C4_6  and  O4_22 
REMARK       I    between atoms: C6_8  and  C5_90 
REMARK       I    between atoms: C6_8  and  O6_83 
REMARK       I    between atoms: O3_11  and  C3_60 
REMARK       I    between atoms: O3_11  and  C1_29 
REMARK       I    between atoms: C5_13  and  C6_18 
REMARK       I    between atoms: O4_14  and  C4_88 
REMARK       I    between atoms: O4_14  and  S_15 
REMARK       I    between atoms: C6_16  and  C5_28 
REMARK       I    between atoms: S_17  and  O4_22 
REMARK       I    between atoms: C6_18  and  O6_66 
REMARK       I    between atoms: O4_20  and  C4_46 
REMARK       I    between atoms: O4_20  and  C1_61 
REMARK       I    between atoms: O4_21  and  C4_54 
REMARK       I    between atoms: O4_21  and  S_40 
REMARK       I    between atoms: O4_24  and  C4_35 
REMARK       I    between atoms: O3_25  and  C3_48 
REMARK       I    between atoms: C6_26  and  C5_50 
REMARK       I    between atoms: C2_27  and  O2_55 
REMARK       I    between atoms: O3_31  and  C3_37 
REMARK       I    between atoms: C2_32  and  N_72 
REMARK       I    between atoms: C7_33  and  C8_39 
REMARK       I    between atoms: C7_33  and  N_52 
REMARK       I    between atoms: C1_34  and  O4_86 
REMARK       I    between atoms: C3_36  and  O3_87 
REMARK       I    between atoms: C2_47  and  O2_85 
REMARK       I    between atoms: N_52  and  C2_71 
REMARK       I    between atoms: C3_53  and  O3_81 
REMARK       I    between atoms: C1_56  and  O3_81 
REMARK       I    between atoms: C7_57  and  C8_64 
REMARK       I    between atoms: C7_57  and  N_63 
REMARK       I    between atoms: C8_58  and  C7_73 
REMARK       I    between atoms: C1_59  and  O1_68 
REMARK       I    between atoms: N_63  and  C2_67 
REMARK       I    between atoms: C4_69  and  O4_86 
REMARK       I    between atoms: N_72  and  C7_73 
REMARK       I    between atoms: C2_77  and  O2_82 
ROOT
ATOM      1  OSB ASG d 302       6.704  30.635  43.377  0.00  0.00    -0.572 OA
ATOM      2  O6  ASG d 302       8.303  34.258  41.472  0.00  0.00    -0.398 OA
ATOM      3  O4  ASG d 302       4.962  32.404  43.509  0.00  0.00    -0.246 OA
ATOM      4  S   ASG d 302       5.475  30.991  44.059  0.00  0.00     0.252 S 
ATOM      5  C6  ASG d 302       7.422  33.454  42.250  0.00  0.00     0.043 C 
ATOM      6  C2  ASG d 302       3.521  34.829  43.383  0.00  0.00     0.087 C 
ATOM      7  C1  ASG d 302       4.306  35.455  42.239  0.00  0.00     0.154 C 
ATOM      8  O5  ASG d 302       5.384  34.599  41.794  0.00  0.00    -0.349 OA
ATOM      9  C5  ASG d 302       6.325  34.297  42.850  0.00  0.00     0.090 C 
ATOM     10  O7  ASG d 302       0.712  34.247  43.627  0.00  0.00    -0.274 OA
ATOM     11  C3  ASG d 302       4.494  34.561  44.516  0.00  0.00     0.094 C 
ATOM     12  C8  ASG d 302       0.203  36.462  44.404  0.00  0.00    -0.003 C 
ATOM     13  OSA ASG d 302       5.716  31.066  45.488  0.00  0.00    -0.572 OA
ATOM     14  N   ASG d 302       2.448  35.764  43.834  0.00  0.00    -0.349 N 
ATOM     15  C7  ASG d 302       1.117  35.362  43.914  0.00  0.00     0.214 C 
ATOM     16  OSC ASG d 302       4.471  29.986  43.793  0.00  0.00    -0.572 OA
ATOM     17  O3  ASG d 302       3.791  33.938  45.530  0.00  0.00    -0.348 OA
ATOM     18  C4  ASG d 302       5.586  33.602  44.011  0.00  0.00     0.114 C 
ATOM     19  H   ASG d 302       9.001  33.701  41.094  0.00  0.00     0.209 HD
ATOM     20  H   ASG d 302       7.975  32.985  43.036  0.00  0.00     0.078 H 
ATOM     21  H   ASG d 302       6.980  32.714  41.616  0.00  0.00     0.078 H 
ATOM     22  H   ASG d 302       3.057  33.918  43.068  0.00  0.00     0.084 H 
ATOM     23  H   ASG d 302       4.720  36.373  42.600  0.00  0.00     0.132 H 
ATOM     24  H   ASG d 302       6.770  35.178  43.263  0.00  0.00     0.090 H 
ATOM     25  H   ASG d 302       4.940  35.470  44.863  0.00  0.00     0.091 H 
ATOM     26  H   ASG d 302      -0.802  36.098  44.446  0.00  0.00     0.040 H 
ATOM     27  H   ASG d 302       0.254  37.294  43.733  0.00  0.00     0.040 H 
ATOM     28  H   ASG d 302       0.511  36.772  45.380  0.00  0.00     0.040 H 
ATOM     29  H   ASG d 302       2.686  36.686  44.081  0.00  0.00     0.163 HD
ATOM     30  H   ASG d 302       6.264  33.354  44.801  0.00  0.00     0.093 H 
ATOM     31  C6  BDP d 303       6.813  35.281  48.881  0.00  0.00     0.206 C 
ATOM     32  O4  BDP d 303       4.513  35.246  50.762  0.00  0.00    -0.348 OA
ATOM     33  O3  BDP d 303       2.104  33.972  49.995  0.00  0.00    -0.390 OA
ATOM     34  C3  BDP d 303       2.970  34.634  49.058  0.00  0.00     0.092 C 
ATOM     35  O6B BDP d 303       7.280  34.181  49.241  0.00  0.00    -0.646 OA
ATOM     36  C4  BDP d 303       4.423  34.578  49.550  0.00  0.00     0.103 C 
ATOM     37  C2  BDP d 303       2.895  33.918  47.724  0.00  0.00     0.110 C 
ATOM     38  O6A BDP d 303       7.377  36.395  48.781  0.00  0.00    -0.646 OA
ATOM     39  C1  BDP d 303       3.827  34.607  46.741  0.00  0.00     0.160 C 
ATOM     40  C5  BDP d 303       5.332  35.286  48.508  0.00  0.00     0.152 C 
ATOM     41  O5  BDP d 303       5.197  34.614  47.225  0.00  0.00    -0.340 OA
ATOM     42  O2  BDP d 303       1.562  33.964  47.207  0.00  0.00    -0.388 OA
ATOM     43  H   BDP d 303       1.190  34.014  49.674  0.00  0.00     0.210 HD
ATOM     44  H   BDP d 303       2.660  35.653  48.962  0.00  0.00     0.091 H 
ATOM     45  H   BDP d 303       4.733  33.561  49.671  0.00  0.00     0.092 H 
ATOM     46  H   BDP d 303       3.182  32.896  47.860  0.00  0.00     0.094 H 
ATOM     47  H   BDP d 303       3.498  35.618  46.628  0.00  0.00     0.133 H 
ATOM     48  H   BDP d 303       5.009  36.305  48.472  0.00  0.00     0.104 H 
ATOM     49  H   BDP d 303       1.295  34.888  47.081  0.00  0.00     0.210 HD
ATOM     50  C1  ASG d 306      12.725  34.370  54.817  0.00  0.00     0.151 C 
ATOM     51  C4  ASG d 306      14.870  32.392  55.106  0.00  0.00     0.089 C 
ATOM     52  C6  ASG d 306      13.078  30.682  54.531  0.00  0.00     0.043 C 
ATOM     53  S   ASG d 306      15.733  31.191  57.216  0.00  0.00     0.252 S 
ATOM     54  O4  ASG d 306      14.683  32.142  56.500  0.00  0.00    -0.249 OA
ATOM     55  OSB ASG d 306      15.388  31.084  58.623  0.00  0.00    -0.572 OA
ATOM     56  OSA ASG d 306      15.682  29.876  56.605  0.00  0.00    -0.572 OA
ATOM     57  C3  ASG d 306      15.280  33.898  54.927  0.00  0.00    -0.014 C 
ATOM     58  C7  ASG d 306      13.971  37.099  56.389  0.00  0.00     0.214 C 
ATOM     59  N   ASG d 306      14.226  36.214  55.339  0.00  0.00    -0.352 N 
ATOM     60  C8  ASG d 306      14.241  38.535  56.017  0.00  0.00    -0.003 C 
ATOM     61  C2  ASG d 306      14.009  34.741  55.494  0.00  0.00     0.062 C 
ATOM     62  O5  ASG d 306      12.464  32.952  54.944  0.00  0.00    -0.349 OA
ATOM     63  O6  ASG d 306      11.792  30.484  53.946  0.00  0.00    -0.398 OA
ATOM     64  O7  ASG d 306      13.564  36.765  57.498  0.00  0.00    -0.274 OA
ATOM     65  OSC ASG d 306      17.063  31.741  57.077  0.00  0.00    -0.572 OA
ATOM     66  C5  ASG d 306      13.522  32.120  54.376  0.00  0.00     0.088 C 
ATOM     67  H   ASG d 306      12.795  34.595  53.774  0.00  0.00     0.132 H 
ATOM     68  H   ASG d 306      15.633  31.761  54.698  0.00  0.00     0.089 H 
ATOM     69  H   ASG d 306      13.031  30.439  55.573  0.00  0.00     0.078 H 
ATOM     70  H   ASG d 306      13.782  30.049  54.032  0.00  0.00     0.078 H 
ATOM     71  H   ASG d 306      15.451  34.123  53.895  0.00  0.00     0.040 H 
ATOM     72  H   ASG d 306      16.186  34.135  55.444  0.00  0.00     0.040 H 
ATOM     73  H   ASG d 306      14.554  36.565  54.479  0.00  0.00     0.163 HD
ATOM     74  H   ASG d 306      14.587  38.581  55.005  0.00  0.00     0.040 H 
ATOM     75  H   ASG d 306      14.989  38.938  56.668  0.00  0.00     0.040 H 
ATOM     76  H   ASG d 306      13.340  39.104  56.113  0.00  0.00     0.040 H 
ATOM     77  H   ASG d 306      13.930  34.490  56.532  0.00  0.00     0.080 H 
ATOM     78  H   ASG d 306      11.143  31.052  54.390  0.00  0.00     0.209 HD
ATOM     79  H   ASG d 306      13.685  32.341  53.342  0.00  0.00     0.090 H 
ATOM     80  C5  BDP d 305       9.798  36.403  54.666  0.00  0.00     0.152 C 
ATOM     81  O6B BDP d 305      10.134  36.228  52.349  0.00  0.00    -0.646 OA
ATOM     82  C6  BDP d 305      10.485  36.836  53.377  0.00  0.00     0.206 C 
ATOM     83  O4  BDP d 305      11.695  35.101  55.400  0.00  0.00    -0.348 OA
ATOM     84  O3  BDP d 305      10.053  33.477  57.056  0.00  0.00    -0.390 OA
ATOM     85  C2  BDP d 305       8.119  34.564  56.165  0.00  0.00     0.110 C 
ATOM     86  C1  BDP d 305       7.594  35.877  55.565  0.00  0.00     0.160 C 
ATOM     87  C4  BDP d 305      10.328  35.057  55.211  0.00  0.00     0.103 C 
ATOM     88  O6A BDP d 305      11.328  37.755  53.518  0.00  0.00    -0.646 OA
ATOM     89  C3  BDP d 305       9.586  34.715  56.517  0.00  0.00     0.092 C 
ATOM     90  O2  BDP d 305       7.339  34.250  57.321  0.00  0.00    -0.388 OA
ATOM     91  O5  BDP d 305       8.371  36.263  54.392  0.00  0.00    -0.340 OA
ATOM     92  H   BDP d 305       9.999  37.147  55.408  0.00  0.00     0.104 H 
ATOM     93  H   BDP d 305       9.574  33.280  57.877  0.00  0.00     0.210 HD
ATOM     94  H   BDP d 305       8.033  33.766  55.458  0.00  0.00     0.094 H 
ATOM     95  H   BDP d 305       7.686  36.638  56.312  0.00  0.00     0.133 H 
ATOM     96  H   BDP d 305      10.139  34.285  54.495  0.00  0.00     0.092 H 
ATOM     97  H   BDP d 305       9.750  35.484  57.243  0.00  0.00     0.091 H 
ATOM     98  H   BDP d 305       7.412  34.970  57.966  0.00  0.00     0.210 HD
ATOM     99  O6B BDP d 301       2.693  39.231  41.001  0.00  0.00    -0.646 OA
ATOM    100  C6  BDP d 301       2.033  38.173  40.906  0.00  0.00     0.206 C 
ATOM    101  O6A BDP d 301       1.058  37.774  41.579  0.00  0.00    -0.646 OA
ATOM    102  O5  BDP d 301       2.606  37.976  38.574  0.00  0.00    -0.340 OA
ATOM    103  C5  BDP d 301       2.480  37.224  39.802  0.00  0.00     0.152 C 
ATOM    104  C3  BDP d 301       4.162  35.595  38.906  0.00  0.00     0.092 C 
ATOM    105  C1  BDP d 301       3.017  37.155  37.438  0.00  0.00     0.156 C 
ATOM    106  O1  BDP d 301       3.057  38.067  36.236  0.00  0.00    -0.368 OA
ATOM    107  C4  BDP d 301       3.784  36.490  40.113  0.00  0.00     0.103 C 
ATOM    108  C2  BDP d 301       4.334  36.475  37.677  0.00  0.00     0.110 C 
ATOM    109  O2  BDP d 301       4.657  35.700  36.525  0.00  0.00    -0.388 OA
ATOM    110  O4  BDP d 301       3.471  35.668  41.179  0.00  0.00    -0.348 OA
ATOM    111  O3  BDP d 301       5.392  34.917  39.167  0.00  0.00    -0.390 OA
ATOM    112  H   BDP d 301       1.736  36.460  39.710  0.00  0.00     0.104 H 
ATOM    113  H   BDP d 301       3.388  34.875  38.743  0.00  0.00     0.091 H 
ATOM    114  H   BDP d 301       2.322  36.357  37.281  0.00  0.00     0.133 H 
ATOM    115  H   BDP d 301       3.691  38.784  36.395  0.00  0.00     0.212 HD
ATOM    116  H   BDP d 301       4.593  37.159  40.319  0.00  0.00     0.092 H 
ATOM    117  H   BDP d 301       5.129  37.172  37.842  0.00  0.00     0.094 H 
ATOM    118  H   BDP d 301       3.948  35.060  36.356  0.00  0.00     0.210 HD
ATOM    119  H   BDP d 301       6.095  35.569  39.316  0.00  0.00     0.210 HD
ATOM    120  OSC ASG d 304       2.109  34.832  56.799  0.00  0.00    -0.572 OA
ATOM    121  O3  ASG d 304       6.240  35.733  55.192  0.00  0.00    -0.348 OA
ATOM    122  C5  ASG d 304       4.723  32.780  53.406  0.00  0.00     0.090 C 
ATOM    123  C6  ASG d 304       3.747  31.678  53.740  0.00  0.00     0.043 C 
ATOM    124  O4  ASG d 304       3.746  34.325  55.005  0.00  0.00    -0.246 OA
ATOM    125  C7  ASG d 304       5.912  37.826  51.904  0.00  0.00     0.214 C 
ATOM    126  C8  ASG d 304       7.060  38.726  51.506  0.00  0.00    -0.003 C 
ATOM    127  S   ASG d 304       3.309  34.070  56.519  0.00  0.00     0.252 S 
ATOM    128  OSB ASG d 304       3.047  32.657  56.726  0.00  0.00    -0.572 OA
ATOM    129  N   ASG d 304       6.337  36.639  52.483  0.00  0.00    -0.349 N 
ATOM    130  C4  ASG d 304       4.989  33.735  54.592  0.00  0.00     0.114 C 
ATOM    131  C3  ASG d 304       5.973  34.829  54.131  0.00  0.00     0.094 C 
ATOM    132  C1  ASG d 304       5.092  34.586  51.835  0.00  0.00     0.154 C 
ATOM    133  O7  ASG d 304       4.742  38.124  51.727  0.00  0.00    -0.274 OA
ATOM    134  O6  ASG d 304       3.860  30.602  52.808  0.00  0.00    -0.398 OA
ATOM    135  O5  ASG d 304       4.191  33.527  52.271  0.00  0.00    -0.349 OA
ATOM    136  C2  ASG d 304       5.376  35.589  52.958  0.00  0.00     0.087 C 
ATOM    137  OSA ASG d 304       4.377  34.489  57.411  0.00  0.00    -0.572 OA
ATOM    138  H   ASG d 304       5.665  32.331  53.168  0.00  0.00     0.090 H 
ATOM    139  H   ASG d 304       2.752  32.069  53.707  0.00  0.00     0.078 H 
ATOM    140  H   ASG d 304       3.968  31.309  54.720  0.00  0.00     0.078 H 
ATOM    141  H   ASG d 304       7.987  38.255  51.759  0.00  0.00     0.040 H 
ATOM    142  H   ASG d 304       6.980  39.657  52.026  0.00  0.00     0.040 H 
ATOM    143  H   ASG d 304       7.026  38.903  50.451  0.00  0.00     0.040 H 
ATOM    144  H   ASG d 304       7.304  36.480  52.585  0.00  0.00     0.163 HD
ATOM    145  H   ASG d 304       5.412  33.203  55.419  0.00  0.00     0.093 H 
ATOM    146  H   ASG d 304       6.890  34.365  53.833  0.00  0.00     0.091 H 
ATOM    147  H   ASG d 304       6.025  34.145  51.551  0.00  0.00     0.132 H 
ATOM    148  H   ASG d 304       3.661  30.926  51.915  0.00  0.00     0.209 HD
ATOM    149  H   ASG d 304       4.470  36.074  53.255  0.00  0.00     0.084 H 
ENDROOT
TORSDOF 38
ENDMDL
MODEL 77
REMARK VINA RESULT:      -4.1      9.689     14.793
REMARK  0 active torsions:
REMARK  status: ('A' for Active; 'I' for Inactive)
REMARK       I    between atoms: C6_2  and  C5_74 
REMARK       I    between atoms: C1_3  and  O4_24 
REMARK       I    between atoms: O6_4  and  C6_26 
REMARK       I    between atoms: C5_5  and  C6_12 
REMARK       I    between atoms: C4_6  and  O4_22 
REMARK       I    between atoms: C6_8  and  C5_90 
REMARK       I    between atoms: C6_8  and  O6_83 
REMARK       I    between atoms: O3_11  and  C3_60 
REMARK       I    between atoms: O3_11  and  C1_29 
REMARK       I    between atoms: C5_13  and  C6_18 
REMARK       I    between atoms: O4_14  and  C4_88 
REMARK       I    between atoms: O4_14  and  S_15 
REMARK       I    between atoms: C6_16  and  C5_28 
REMARK       I    between atoms: S_17  and  O4_22 
REMARK       I    between atoms: C6_18  and  O6_66 
REMARK       I    between atoms: O4_20  and  C4_46 
REMARK       I    between atoms: O4_20  and  C1_61 
REMARK       I    between atoms: O4_21  and  C4_54 
REMARK       I    between atoms: O4_21  and  S_40 
REMARK       I    between atoms: O4_24  and  C4_35 
REMARK       I    between atoms: O3_25  and  C3_48 
REMARK       I    between atoms: C6_26  and  C5_50 
REMARK       I    between atoms: C2_27  and  O2_55 
REMARK       I    between atoms: O3_31  and  C3_37 
REMARK       I    between atoms: C2_32  and  N_72 
REMARK       I    between atoms: C7_33  and  C8_39 
REMARK       I    between atoms: C7_33  and  N_52 
REMARK       I    between atoms: C1_34  and  O4_86 
REMARK       I    between atoms: C3_36  and  O3_87 
REMARK       I    between atoms: C2_47  and  O2_85 
REMARK       I    between atoms: N_52  and  C2_71 
REMARK       I    between atoms: C3_53  and  O3_81 
REMARK       I    between atoms: C1_56  and  O3_81 
REMARK       I    between atoms: C7_57  and  C8_64 
REMARK       I    between atoms: C7_57  and  N_63 
REMARK       I    between atoms: C8_58  and  C7_73 
REMARK       I    between atoms: C1_59  and  O1_68 
REMARK       I    between atoms: N_63  and  C2_67 
REMARK       I    between atoms: C4_69  and  O4_86 
REMARK       I    between atoms: N_72  and  C7_73 
REMARK       I    between atoms: C2_77  and  O2_82 
ROOT
ATOM      1  OSB ASG d 302       6.569  33.238  42.171  0.00  0.00    -0.572 OA
ATOM      2  O6  ASG d 302       7.343  37.519  41.547  0.00  0.00    -0.398 OA
ATOM      3  O4  ASG d 302       4.398  34.441  42.325  0.00  0.00    -0.246 OA
ATOM      4  S   ASG d 302       5.203  33.091  42.632  0.00  0.00     0.252 S 
ATOM      5  C6  ASG d 302       6.620  36.346  41.908  0.00  0.00     0.043 C 
ATOM      6  C2  ASG d 302       2.366  36.397  42.450  0.00  0.00     0.087 C 
ATOM      7  C1  ASG d 302       3.103  37.484  41.681  0.00  0.00     0.154 C 
ATOM      8  O5  ASG d 302       4.432  37.064  41.295  0.00  0.00    -0.349 OA
ATOM      9  C5  ASG d 302       5.253  36.707  42.432  0.00  0.00     0.090 C 
ATOM     10  O7  ASG d 302      -0.168  35.130  41.936  0.00  0.00    -0.274 OA
ATOM     11  C3  ASG d 302       3.196  36.058  43.675  0.00  0.00     0.094 C 
ATOM     12  C8  ASG d 302      -1.391  36.856  43.073  0.00  0.00    -0.003 C 
ATOM     13  OSA ASG d 302       5.197  32.818  44.058  0.00  0.00    -0.572 OA
ATOM     14  N   ASG d 302       1.018  36.890  42.860  0.00  0.00    -0.349 N 
ATOM     15  C7  ASG d 302      -0.142  36.183  42.553  0.00  0.00     0.214 C 
ATOM     16  OSC ASG d 302       4.575  31.995  41.930  0.00  0.00    -0.572 OA
ATOM     17  O3  ASG d 302       2.555  35.030  44.340  0.00  0.00    -0.348 OA
ATOM     18  C4  ASG d 302       4.576  35.562  43.213  0.00  0.00     0.114 C 
ATOM     19  H   ASG d 302       8.218  37.269  41.212  0.00  0.00     0.209 HD
ATOM     20  H   ASG d 302       7.159  35.819  42.666  0.00  0.00     0.078 H 
ATOM     21  H   ASG d 302       6.504  35.731  41.040  0.00  0.00     0.078 H 
ATOM     22  H   ASG d 302       2.231  35.528  41.840  0.00  0.00     0.084 H 
ATOM     23  H   ASG d 302       3.182  38.334  42.324  0.00  0.00     0.132 H 
ATOM     24  H   ASG d 302       5.363  37.516  43.124  0.00  0.00     0.090 H 
ATOM     25  H   ASG d 302       3.310  36.912  44.310  0.00  0.00     0.091 H 
ATOM     26  H   ASG d 302      -2.247  36.270  42.810  0.00  0.00     0.040 H 
ATOM     27  H   ASG d 302      -1.478  37.830  42.639  0.00  0.00     0.040 H 
ATOM     28  H   ASG d 302      -1.333  36.943  44.137  0.00  0.00     0.040 H 
ATOM     29  H   ASG d 302       0.946  37.736  43.358  0.00  0.00     0.163 HD
ATOM     30  H   ASG d 302       5.171  35.268  44.053  0.00  0.00     0.093 H 
ATOM     31  C6  BDP d 303       4.540  36.049  48.486  0.00  0.00     0.206 C 
ATOM     32  O4  BDP d 303       2.090  34.952  49.761  0.00  0.00    -0.348 OA
ATOM     33  O3  BDP d 303       0.282  33.417  48.215  0.00  0.00    -0.390 OA
ATOM     34  C3  BDP d 303       1.055  34.498  47.668  0.00  0.00     0.092 C 
ATOM     35  O6B BDP d 303       5.240  35.034  48.675  0.00  0.00    -0.646 OA
ATOM     36  C4  BDP d 303       2.375  34.649  48.437  0.00  0.00     0.103 C 
ATOM     37  C2  BDP d 303       1.385  34.187  46.221  0.00  0.00     0.110 C 
ATOM     38  O6A BDP d 303       4.774  37.246  48.770  0.00  0.00    -0.646 OA
ATOM     39  C1  BDP d 303       2.219  35.322  45.651  0.00  0.00     0.160 C 
ATOM     40  C5  BDP d 303       3.191  35.811  47.811  0.00  0.00     0.152 C 
ATOM     41  O5  BDP d 303       3.443  35.514  46.409  0.00  0.00    -0.340 OA
ATOM     42  O2  BDP d 303       0.185  34.063  45.451  0.00  0.00    -0.388 OA
ATOM     43  H   BDP d 303      -0.549  33.332  47.721  0.00  0.00     0.210 HD
ATOM     44  H   BDP d 303       0.487  35.402  47.744  0.00  0.00     0.091 H 
ATOM     45  H   BDP d 303       2.938  33.740  48.386  0.00  0.00     0.092 H 
ATOM     46  H   BDP d 303       1.926  33.265  46.177  0.00  0.00     0.094 H 
ATOM     47  H   BDP d 303       1.638  36.218  45.704  0.00  0.00     0.133 H 
ATOM     48  H   BDP d 303       2.602  36.695  47.941  0.00  0.00     0.104 H 
ATOM     49  H   BDP d 303      -0.310  34.897  45.486  0.00  0.00     0.210 HD
ATOM     50  C1  ASG d 306       9.517  34.922  55.192  0.00  0.00     0.151 C 
ATOM     51  C4  ASG d 306      12.065  33.501  55.477  0.00  0.00     0.089 C 
ATOM     52  C6  ASG d 306      10.936  31.650  54.148  0.00  0.00     0.043 C 
ATOM     53  S   ASG d 306      12.908  31.994  57.390  0.00  0.00     0.252 S 
ATOM     54  O4  ASG d 306      11.751  32.834  56.701  0.00  0.00    -0.249 OA
ATOM     55  OSB ASG d 306      12.403  31.420  58.624  0.00  0.00    -0.572 OA
ATOM     56  OSA ASG d 306      13.323  30.928  56.495  0.00  0.00    -0.572 OA
ATOM     57  C3  ASG d 306      12.055  35.049  55.744  0.00  0.00    -0.014 C 
ATOM     58  C7  ASG d 306       9.692  37.314  57.583  0.00  0.00     0.214 C 
ATOM     59  N   ASG d 306      10.340  36.844  56.438  0.00  0.00    -0.352 N 
ATOM     60  C8  ASG d 306       9.597  38.819  57.620  0.00  0.00    -0.003 C 
ATOM     61  C2  ASG d 306      10.528  35.378  56.199  0.00  0.00     0.062 C 
ATOM     62  O5  ASG d 306       9.651  33.505  54.929  0.00  0.00    -0.349 OA
ATOM     63  O6  ASG d 306       9.860  31.329  53.267  0.00  0.00    -0.398 OA
ATOM     64  O7  ASG d 306       9.235  36.598  58.470  0.00  0.00    -0.274 OA
ATOM     65  OSC ASG d 306      14.034  32.856  57.674  0.00  0.00    -0.572 OA
ATOM     66  C5  ASG d 306      10.973  33.136  54.429  0.00  0.00     0.088 C 
ATOM     67  H   ASG d 306       9.674  35.440  54.269  0.00  0.00     0.132 H 
ATOM     68  H   ASG d 306      13.027  33.206  55.111  0.00  0.00     0.089 H 
ATOM     69  H   ASG d 306      10.806  31.122  55.069  0.00  0.00     0.078 H 
ATOM     70  H   ASG d 306      11.857  31.365  53.682  0.00  0.00     0.078 H 
ATOM     71  H   ASG d 306      12.307  35.587  54.854  0.00  0.00     0.040 H 
ATOM     72  H   ASG d 306      12.770  35.337  56.486  0.00  0.00     0.040 H 
ATOM     73  H   ASG d 306      10.679  37.488  55.776  0.00  0.00     0.163 HD
ATOM     74  H   ASG d 306      10.062  39.226  56.746  0.00  0.00     0.040 H 
ATOM     75  H   ASG d 306      10.095  39.186  58.493  0.00  0.00     0.040 H 
ATOM     76  H   ASG d 306       8.568  39.111  57.646  0.00  0.00     0.040 H 
ATOM     77  H   ASG d 306      10.370  34.836  57.109  0.00  0.00     0.080 H 
ATOM     78  H   ASG d 306       9.019  31.583  53.678  0.00  0.00     0.209 HD
ATOM     79  H   ASG d 306      11.219  33.671  53.534  0.00  0.00     0.090 H 
ATOM     80  C5  BDP d 305       6.191  36.173  54.880  0.00  0.00     0.152 C 
ATOM     81  O6B BDP d 305       6.903  36.737  52.715  0.00  0.00    -0.646 OA
ATOM     82  C6  BDP d 305       6.911  37.097  53.907  0.00  0.00     0.206 C 
ATOM     83  O4  BDP d 305       8.247  35.199  55.689  0.00  0.00    -0.348 OA
ATOM     84  O3  BDP d 305       6.904  32.838  56.529  0.00  0.00    -0.390 OA
ATOM     85  C2  BDP d 305       4.897  33.648  55.512  0.00  0.00     0.110 C 
ATOM     86  C1  BDP d 305       4.117  34.915  55.132  0.00  0.00     0.160 C 
ATOM     87  C4  BDP d 305       6.992  34.890  55.202  0.00  0.00     0.103 C 
ATOM     88  O6A BDP d 305       7.429  38.111  54.436  0.00  0.00    -0.646 OA
ATOM     89  C3  BDP d 305       6.191  34.033  56.201  0.00  0.00     0.092 C 
ATOM     90  O2  BDP d 305       4.074  32.849  56.367  0.00  0.00    -0.388 OA
ATOM     91  O5  BDP d 305       4.918  35.785  54.277  0.00  0.00    -0.340 OA
ATOM     92  H   BDP d 305       6.060  36.705  55.800  0.00  0.00     0.104 H 
ATOM     93  H   BDP d 305       6.383  32.314  57.157  0.00  0.00     0.210 HD
ATOM     94  H   BDP d 305       5.146  33.083  54.639  0.00  0.00     0.094 H 
ATOM     95  H   BDP d 305       3.878  35.437  56.036  0.00  0.00     0.133 H 
ATOM     96  H   BDP d 305       7.138  34.328  54.304  0.00  0.00     0.092 H 
ATOM     97  H   BDP d 305       6.022  34.584  57.102  0.00  0.00     0.091 H 
ATOM     98  H   BDP d 305       3.844  33.356  57.161  0.00  0.00     0.210 HD
ATOM     99  O6B BDP d 301       0.691  40.969  41.026  0.00  0.00    -0.646 OA
ATOM    100  C6  BDP d 301       0.379  39.856  40.547  0.00  0.00     0.206 C 
ATOM    101  O6A BDP d 301      -0.532  39.069  40.881  0.00  0.00    -0.646 OA
ATOM    102  O5  BDP d 301       1.324  40.460  38.415  0.00  0.00    -0.340 OA
ATOM    103  C5  BDP d 301       1.235  39.386  39.379  0.00  0.00     0.152 C 
ATOM    104  C3  BDP d 301       3.423  38.514  38.520  0.00  0.00     0.092 C 
ATOM    105  C1  BDP d 301       2.115  40.110  37.238  0.00  0.00     0.156 C 
ATOM    106  O1  BDP d 301       2.074  41.304  36.317  0.00  0.00    -0.368 OA
ATOM    107  C4  BDP d 301       2.632  38.921  39.789  0.00  0.00     0.103 C 
ATOM    108  C2  BDP d 301       3.520  39.717  37.594  0.00  0.00     0.110 C 
ATOM    109  O2  BDP d 301       4.217  39.394  36.394  0.00  0.00    -0.388 OA
ATOM    110  O4  BDP d 301       2.410  37.783  40.542  0.00  0.00    -0.348 OA
ATOM    111  O3  BDP d 301       4.741  38.097  38.879  0.00  0.00    -0.390 OA
ATOM    112  H   BDP d 301       0.760  38.526  38.954  0.00  0.00     0.104 H 
ATOM    113  H   BDP d 301       2.917  37.707  38.031  0.00  0.00     0.091 H 
ATOM    114  H   BDP d 301       1.706  39.248  36.755  0.00  0.00     0.133 H 
ATOM    115  H   BDP d 301       2.448  42.076  36.771  0.00  0.00     0.212 HD
ATOM    116  H   BDP d 301       3.179  39.675  40.315  0.00  0.00     0.092 H 
ATOM    117  H   BDP d 301       4.051  40.506  38.085  0.00  0.00     0.094 H 
ATOM    118  H   BDP d 301       3.751  38.679  35.932  0.00  0.00     0.210 HD
ATOM    119  H   BDP d 301       5.201  38.827  39.324  0.00  0.00     0.210 HD
ATOM    120  OSC ASG d 304      -0.969  32.314  54.868  0.00  0.00    -0.572 OA
ATOM    121  O3  ASG d 304       2.930  34.569  54.450  0.00  0.00    -0.348 OA
ATOM    122  C5  ASG d 304       2.594  31.965  51.745  0.00  0.00     0.090 C 
ATOM    123  C6  ASG d 304       1.930  30.617  51.597  0.00  0.00     0.043 C 
ATOM    124  O4  ASG d 304       0.993  32.727  53.405  0.00  0.00    -0.246 OA
ATOM    125  C7  ASG d 304       2.517  37.362  51.743  0.00  0.00     0.214 C 
ATOM    126  C8  ASG d 304       3.409  38.579  51.823  0.00  0.00    -0.003 C 
ATOM    127  S   ASG d 304       0.426  31.964  54.687  0.00  0.00     0.252 S 
ATOM    128  OSB ASG d 304       0.547  30.529  54.502  0.00  0.00    -0.572 OA
ATOM    129  N   ASG d 304       3.169  36.194  52.111  0.00  0.00    -0.349 N 
ATOM    130  C4  ASG d 304       2.399  32.584  53.149  0.00  0.00     0.114 C 
ATOM    131  C3  ASG d 304       3.091  33.963  53.178  0.00  0.00     0.094 C 
ATOM    132  C1  ASG d 304       2.666  34.173  50.752  0.00  0.00     0.154 C 
ATOM    133  O7  ASG d 304       1.351  37.415  51.389  0.00  0.00    -0.274 OA
ATOM    134  O6  ASG d 304       2.480  29.903  50.489  0.00  0.00    -0.398 OA
ATOM    135  O5  ASG d 304       2.047  32.853  50.725  0.00  0.00    -0.349 OA
ATOM    136  C2  ASG d 304       2.484  34.858  52.110  0.00  0.00     0.087 C 
ATOM    137  OSA ASG d 304       1.186  32.354  55.863  0.00  0.00    -0.572 OA
ATOM    138  H   ASG d 304       3.648  31.834  51.622  0.00  0.00     0.090 H 
ATOM    139  H   ASG d 304       0.882  30.757  51.438  0.00  0.00     0.078 H 
ATOM    140  H   ASG d 304       2.098  30.051  52.489  0.00  0.00     0.078 H 
ATOM    141  H   ASG d 304       4.383  38.287  52.156  0.00  0.00     0.040 H 
ATOM    142  H   ASG d 304       2.993  39.282  52.513  0.00  0.00     0.040 H 
ATOM    143  H   ASG d 304       3.484  39.031  50.855  0.00  0.00     0.040 H 
ATOM    144  H   ASG d 304       4.114  36.244  52.382  0.00  0.00     0.163 HD
ATOM    145  H   ASG d 304       2.827  31.956  53.902  0.00  0.00     0.093 H 
ATOM    146  H   ASG d 304       4.135  33.828  52.987  0.00  0.00     0.091 H 
ATOM    147  H   ASG d 304       3.717  34.059  50.584  0.00  0.00     0.132 H 
ATOM    148  H   ASG d 304       2.333  30.408  49.673  0.00  0.00     0.209 HD
ATOM    149  H   ASG d 304       1.444  35.015  52.307  0.00  0.00     0.084 H 
ENDROOT
TORSDOF 38
ENDMDL
MODEL 78
REMARK VINA RESULT:      -4.1      3.449      4.316
REMARK  0 active torsions:
REMARK  status: ('A' for Active; 'I' for Inactive)
REMARK       I    between atoms: C6_2  and  C5_74 
REMARK       I    between atoms: C1_3  and  O4_24 
REMARK       I    between atoms: O6_4  and  C6_26 
REMARK       I    between atoms: C5_5  and  C6_12 
REMARK       I    between atoms: C4_6  and  O4_22 
REMARK       I    between atoms: C6_8  and  C5_90 
REMARK       I    between atoms: C6_8  and  O6_83 
REMARK       I    between atoms: O3_11  and  C3_60 
REMARK       I    between atoms: O3_11  and  C1_29 
REMARK       I    between atoms: C5_13  and  C6_18 
REMARK       I    between atoms: O4_14  and  C4_88 
REMARK       I    between atoms: O4_14  and  S_15 
REMARK       I    between atoms: C6_16  and  C5_28 
REMARK       I    between atoms: S_17  and  O4_22 
REMARK       I    between atoms: C6_18  and  O6_66 
REMARK       I    between atoms: O4_20  and  C4_46 
REMARK       I    between atoms: O4_20  and  C1_61 
REMARK       I    between atoms: O4_21  and  C4_54 
REMARK       I    between atoms: O4_21  and  S_40 
REMARK       I    between atoms: O4_24  and  C4_35 
REMARK       I    between atoms: O3_25  and  C3_48 
REMARK       I    between atoms: C6_26  and  C5_50 
REMARK       I    between atoms: C2_27  and  O2_55 
REMARK       I    between atoms: O3_31  and  C3_37 
REMARK       I    between atoms: C2_32  and  N_72 
REMARK       I    between atoms: C7_33  and  C8_39 
REMARK       I    between atoms: C7_33  and  N_52 
REMARK       I    between atoms: C1_34  and  O4_86 
REMARK       I    between atoms: C3_36  and  O3_87 
REMARK       I    between atoms: C2_47  and  O2_85 
REMARK       I    between atoms: N_52  and  C2_71 
REMARK       I    between atoms: C3_53  and  O3_81 
REMARK       I    between atoms: C1_56  and  O3_81 
REMARK       I    between atoms: C7_57  and  C8_64 
REMARK       I    between atoms: C7_57  and  N_63 
REMARK       I    between atoms: C8_58  and  C7_73 
REMARK       I    between atoms: C1_59  and  O1_68 
REMARK       I    between atoms: N_63  and  C2_67 
REMARK       I    between atoms: C4_69  and  O4_86 
REMARK       I    between atoms: N_72  and  C7_73 
REMARK       I    between atoms: C2_77  and  O2_82 
ROOT
ATOM      1  OSB ASG d 302      16.949  38.439  42.376  0.00  0.00    -0.572 OA
ATOM      2  O6  ASG d 302      15.529  34.933  40.139  0.00  0.00    -0.398 OA
ATOM      3  O4  ASG d 302      18.638  36.632  42.628  0.00  0.00    -0.246 OA
ATOM      4  S   ASG d 302      18.085  38.030  43.179  0.00  0.00     0.252 S 
ATOM      5  C6  ASG d 302      16.326  35.686  41.048  0.00  0.00     0.043 C 
ATOM      6  C2  ASG d 302      20.049  34.187  42.559  0.00  0.00     0.087 C 
ATOM      7  C1  ASG d 302      19.392  33.626  41.306  0.00  0.00     0.154 C 
ATOM      8  O5  ASG d 302      18.386  34.521  40.779  0.00  0.00    -0.349 OA
ATOM      9  C5  ASG d 302      17.333  34.796  41.732  0.00  0.00     0.090 C 
ATOM     10  O7  ASG d 302      22.819  34.703  43.151  0.00  0.00    -0.274 OA
ATOM     11  C3  ASG d 302      18.955  34.425  43.584  0.00  0.00     0.094 C 
ATOM     12  C8  ASG d 302      23.202  32.447  43.881  0.00  0.00    -0.003 C 
ATOM     13  OSA ASG d 302      17.679  37.898  44.566  0.00  0.00    -0.572 OA
ATOM     14  N   ASG d 302      21.049  33.213  43.088  0.00  0.00    -0.349 N 
ATOM     15  C7  ASG d 302      22.367  33.584  43.339  0.00  0.00     0.214 C 
ATOM     16  OSC ASG d 302      19.128  39.025  43.075  0.00  0.00    -0.572 OA
ATOM     17  O3  ASG d 302      19.545  34.990  44.699  0.00  0.00    -0.348 OA
ATOM     18  C4  ASG d 302      17.944  35.426  43.001  0.00  0.00     0.114 C 
ATOM     19  H   ASG d 302      14.888  35.520  39.709  0.00  0.00     0.209 HD
ATOM     20  H   ASG d 302      15.692  36.131  41.786  0.00  0.00     0.078 H 
ATOM     21  H   ASG d 302      16.849  36.444  40.503  0.00  0.00     0.078 H 
ATOM     22  H   ASG d 302      20.559  35.102  42.341  0.00  0.00     0.084 H 
ATOM     23  H   ASG d 302      18.927  32.702  41.575  0.00  0.00     0.132 H 
ATOM     24  H   ASG d 302      16.831  33.907  42.051  0.00  0.00     0.090 H 
ATOM     25  H   ASG d 302      18.459  33.511  43.836  0.00  0.00     0.091 H 
ATOM     26  H   ASG d 302      24.201  32.789  44.054  0.00  0.00     0.040 H 
ATOM     27  H   ASG d 302      23.217  31.646  43.171  0.00  0.00     0.040 H 
ATOM     28  H   ASG d 302      22.779  32.101  44.800  0.00  0.00     0.040 H 
ATOM     29  H   ASG d 302      20.770  32.285  43.264  0.00  0.00     0.163 HD
ATOM     30  H   ASG d 302      17.182  35.653  43.718  0.00  0.00     0.093 H 
ATOM     31  C6  BDP d 303      16.137  33.563  47.617  0.00  0.00     0.206 C 
ATOM     32  O4  BDP d 303      18.204  33.472  49.749  0.00  0.00    -0.348 OA
ATOM     33  O3  BDP d 303      20.704  34.731  49.322  0.00  0.00    -0.390 OA
ATOM     34  C3  BDP d 303      19.942  34.126  48.264  0.00  0.00     0.092 C 
ATOM     35  O6B BDP d 303      15.647  34.655  47.969  0.00  0.00    -0.646 OA
ATOM     36  C4  BDP d 303      18.443  34.190  48.587  0.00  0.00     0.103 C 
ATOM     37  C2  BDP d 303      20.181  34.898  46.981  0.00  0.00     0.110 C 
ATOM     38  O6A BDP d 303      15.572  32.466  47.402  0.00  0.00    -0.646 OA
ATOM     39  C1  BDP d 303      19.359  34.270  45.867  0.00  0.00     0.160 C 
ATOM     40  C5  BDP d 303      17.650  33.546  47.417  0.00  0.00     0.152 C 
ATOM     41  O5  BDP d 303      17.943  34.269  46.189  0.00  0.00    -0.340 OA
ATOM     42  O2  BDP d 303      21.565  34.848  46.619  0.00  0.00    -0.388 OA
ATOM     43  H   BDP d 303      21.648  34.685  49.107  0.00  0.00     0.210 HD
ATOM     44  H   BDP d 303      20.247  33.106  48.158  0.00  0.00     0.091 H 
ATOM     45  H   BDP d 303      18.135  35.206  48.717  0.00  0.00     0.092 H 
ATOM     46  H   BDP d 303      19.895  35.919  47.129  0.00  0.00     0.094 H 
ATOM     47  H   BDP d 303      19.685  33.258  45.747  0.00  0.00     0.133 H 
ATOM     48  H   BDP d 303      17.961  32.523  47.372  0.00  0.00     0.104 H 
ATOM     49  H   BDP d 303      21.830  33.925  46.482  0.00  0.00     0.210 HD
ATOM     50  C1  ASG d 306       9.590  34.334  52.868  0.00  0.00     0.151 C 
ATOM     51  C4  ASG d 306       7.456  36.339  52.997  0.00  0.00     0.089 C 
ATOM     52  C6  ASG d 306       9.327  38.037  52.710  0.00  0.00     0.043 C 
ATOM     53  S   ASG d 306       6.372  37.464  55.046  0.00  0.00     0.252 S 
ATOM     54  O4  ASG d 306       7.484  36.525  54.413  0.00  0.00    -0.249 OA
ATOM     55  OSB ASG d 306       6.553  37.504  56.486  0.00  0.00    -0.572 OA
ATOM     56  OSA ASG d 306       6.513  38.804  54.504  0.00  0.00    -0.572 OA
ATOM     57  C3  ASG d 306       7.048  34.851  52.705  0.00  0.00    -0.014 C 
ATOM     58  C7  ASG d 306       8.132  31.565  54.162  0.00  0.00     0.214 C 
ATOM     59  N   ASG d 306       8.013  32.499  53.130  0.00  0.00    -0.352 N 
ATOM     60  C8  ASG d 306       7.886  30.152  53.697  0.00  0.00    -0.003 C 
ATOM     61  C2  ASG d 306       8.232  33.959  53.376  0.00  0.00     0.062 C 
ATOM     62  O5  ASG d 306       9.856  35.739  53.088  0.00  0.00    -0.349 OA
ATOM     63  O6  ASG d 306      10.675  38.235  52.286  0.00  0.00    -0.398 OA
ATOM     64  O7  ASG d 306       8.413  31.842  55.325  0.00  0.00    -0.274 OA
ATOM     65  OSC ASG d 306       5.059  36.948  54.731  0.00  0.00    -0.572 OA
ATOM     66  C5  ASG d 306       8.883  36.616  52.440  0.00  0.00     0.088 C 
ATOM     67  H   ASG d 306       9.639  34.155  51.814  0.00  0.00     0.132 H 
ATOM     68  H   ASG d 306       6.755  37.002  52.533  0.00  0.00     0.089 H 
ATOM     69  H   ASG d 306       9.256  38.234  53.760  0.00  0.00     0.078 H 
ATOM     70  H   ASG d 306       8.694  38.704  52.163  0.00  0.00     0.078 H 
ATOM     71  H   ASG d 306       6.994  34.674  51.651  0.00  0.00     0.040 H 
ATOM     72  H   ASG d 306       6.084  34.610  53.103  0.00  0.00     0.040 H 
ATOM     73  H   ASG d 306       7.781  32.191  52.224  0.00  0.00     0.163 HD
ATOM     74  H   ASG d 306       7.659  30.155  52.651  0.00  0.00     0.040 H 
ATOM     75  H   ASG d 306       7.062  29.736  54.239  0.00  0.00     0.040 H 
ATOM     76  H   ASG d 306       8.761  29.562  53.870  0.00  0.00     0.040 H 
ATOM     77  H   ASG d 306       8.193  34.164  54.426  0.00  0.00     0.080 H 
ATOM     78  H   ASG d 306      11.259  37.635  52.776  0.00  0.00     0.209 HD
ATOM     79  H   ASG d 306       8.837  36.442  51.385  0.00  0.00     0.090 H 
ATOM     80  C5  BDP d 305      12.485  32.252  52.963  0.00  0.00     0.152 C 
ATOM     81  O6B BDP d 305      12.423  32.533  50.633  0.00  0.00    -0.646 OA
ATOM     82  C6  BDP d 305      11.947  31.889  51.586  0.00  0.00     0.206 C 
ATOM     83  O4  BDP d 305      10.536  33.558  53.532  0.00  0.00    -0.348 OA
ATOM     84  O3  BDP d 305      11.999  35.077  55.438  0.00  0.00    -0.390 OA
ATOM     85  C2  BDP d 305      14.006  33.992  54.727  0.00  0.00     0.110 C 
ATOM     86  C1  BDP d 305      14.579  32.696  54.133  0.00  0.00     0.160 C 
ATOM     87  C4  BDP d 305      11.916  33.584  53.504  0.00  0.00     0.103 C 
ATOM     88  O6A BDP d 305      11.080  30.981  51.587  0.00  0.00    -0.646 OA
ATOM     89  C3  BDP d 305      12.507  33.854  54.901  0.00  0.00     0.092 C 
ATOM     90  O2  BDP d 305      14.652  34.241  55.978  0.00  0.00    -0.388 OA
ATOM     91  O5  BDP d 305      13.937  32.375  52.861  0.00  0.00    -0.340 OA
ATOM     92  H   BDP d 305      12.189  31.480  53.643  0.00  0.00     0.104 H 
ATOM     93  H   BDP d 305      12.382  35.229  56.316  0.00  0.00     0.210 HD
ATOM     94  H   BDP d 305      14.185  34.817  54.071  0.00  0.00     0.094 H 
ATOM     95  H   BDP d 305      14.389  31.905  54.829  0.00  0.00     0.133 H 
ATOM     96  H   BDP d 305      12.198  34.381  52.850  0.00  0.00     0.092 H 
ATOM     97  H   BDP d 305      12.248  33.058  55.567  0.00  0.00     0.091 H 
ATOM     98  H   BDP d 305      14.494  33.495  56.577  0.00  0.00     0.210 HD
ATOM     99  O6B BDP d 301      21.083  29.876  40.093  0.00  0.00    -0.646 OA
ATOM    100  C6  BDP d 301      21.765  30.924  40.122  0.00  0.00     0.206 C 
ATOM    101  O6A BDP d 301      22.661  31.274  40.920  0.00  0.00    -0.646 OA
ATOM    102  O5  BDP d 301      21.469  31.232  37.751  0.00  0.00    -0.340 OA
ATOM    103  C5  BDP d 301      21.463  31.929  39.017  0.00  0.00     0.152 C 
ATOM    104  C3  BDP d 301      19.920  33.626  38.008  0.00  0.00     0.092 C 
ATOM    105  C1  BDP d 301      21.204  32.109  36.613  0.00  0.00     0.156 C 
ATOM    106  O1  BDP d 301      21.290  31.251  35.375  0.00  0.00    -0.368 OA
ATOM    107  C4  BDP d 301      20.142  32.674  39.210  0.00  0.00     0.103 C 
ATOM    108  C2  BDP d 301      19.878  32.804  36.729  0.00  0.00     0.110 C 
ATOM    109  O2  BDP d 301      19.702  33.634  35.584  0.00  0.00    -0.388 OA
ATOM    110  O4  BDP d 301      20.341  33.443  40.340  0.00  0.00    -0.348 OA
ATOM    111  O3  BDP d 301      18.677  34.317  38.157  0.00  0.00    -0.390 OA
ATOM    112  H   BDP d 301      22.223  32.681  39.047  0.00  0.00     0.104 H 
ATOM    113  H   BDP d 301      20.717  34.338  37.968  0.00  0.00     0.091 H 
ATOM    114  H   BDP d 301      21.924  32.899  36.574  0.00  0.00     0.133 H 
ATOM    115  H   BDP d 301      20.632  30.540  35.427  0.00  0.00     0.212 HD
ATOM    116  H   BDP d 301      19.305  32.012  39.291  0.00  0.00     0.092 H 
ATOM    117  H   BDP d 301      19.060  32.116  36.771  0.00  0.00     0.094 H 
ATOM    118  H   BDP d 301      20.435  34.267  35.527  0.00  0.00     0.210 HD
ATOM    119  H   BDP d 301      17.952  33.673  38.194  0.00  0.00     0.210 HD
ATOM    120  OSC ASG d 304      19.898  33.579  56.035  0.00  0.00    -0.572 OA
ATOM    121  O3  ASG d 304      15.969  32.829  53.924  0.00  0.00    -0.348 OA
ATOM    122  C5  ASG d 304      17.725  35.826  52.459  0.00  0.00     0.090 C 
ATOM    123  C6  ASG d 304      18.671  36.893  52.953  0.00  0.00     0.043 C 
ATOM    124  O4  ASG d 304      18.488  34.194  54.089  0.00  0.00    -0.246 OA
ATOM    125  C7  ASG d 304      16.644  30.873  50.606  0.00  0.00     0.214 C 
ATOM    126  C8  ASG d 304      15.537  30.014  50.038  0.00  0.00    -0.003 C 
ATOM    127  S   ASG d 304      18.750  34.376  55.653  0.00  0.00     0.252 S 
ATOM    128  OSB ASG d 304      19.006  35.773  55.953  0.00  0.00    -0.572 OA
ATOM    129  N   ASG d 304      16.172  32.042  51.184  0.00  0.00    -0.349 N 
ATOM    130  C4  ASG d 304      17.310  34.826  53.564  0.00  0.00     0.114 C 
ATOM    131  C3  ASG d 304      16.369  33.772  52.943  0.00  0.00     0.094 C 
ATOM    132  C1  ASG d 304      17.514  34.096  50.776  0.00  0.00     0.154 C 
ATOM    133  O7  ASG d 304      17.822  30.560  50.551  0.00  0.00    -0.274 OA
ATOM    134  O6  ASG d 304      18.683  38.010  52.064  0.00  0.00    -0.398 OA
ATOM    135  O5  ASG d 304      18.374  35.118  51.361  0.00  0.00    -0.349 OA
ATOM    136  C2  ASG d 304      17.087  33.052  51.814  0.00  0.00     0.087 C 
ATOM    137  OSA ASG d 304      17.580  33.939  56.397  0.00  0.00    -0.572 OA
ATOM    138  H   ASG d 304      16.823  36.302  52.136  0.00  0.00     0.090 H 
ATOM    139  H   ASG d 304      19.658  36.485  53.017  0.00  0.00     0.078 H 
ATOM    140  H   ASG d 304      18.344  37.223  53.917  0.00  0.00     0.078 H 
ATOM    141  H   ASG d 304      14.594  30.492  50.203  0.00  0.00     0.040 H 
ATOM    142  H   ASG d 304      15.543  29.060  50.521  0.00  0.00     0.040 H 
ATOM    143  H   ASG d 304      15.691  29.882  48.987  0.00  0.00     0.040 H 
ATOM    144  H   ASG d 304      15.203  32.215  51.182  0.00  0.00     0.163 HD
ATOM    145  H   ASG d 304      16.801  35.330  54.359  0.00  0.00     0.093 H 
ATOM    146  H   ASG d 304      15.500  34.267  52.563  0.00  0.00     0.091 H 
ATOM    147  H   ASG d 304      16.627  34.568  50.408  0.00  0.00     0.132 H 
ATOM    148  H   ASG d 304      18.979  37.721  51.186  0.00  0.00     0.209 HD
ATOM    149  H   ASG d 304      17.946  32.537  52.191  0.00  0.00     0.084 H 
ENDROOT
TORSDOF 38
ENDMDL
MODEL 79
REMARK VINA RESULT:      -3.9      3.287      3.838
REMARK  0 active torsions:
REMARK  status: ('A' for Active; 'I' for Inactive)
REMARK       I    between atoms: C6_2  and  C5_74 
REMARK       I    between atoms: C1_3  and  O4_24 
REMARK       I    between atoms: O6_4  and  C6_26 
REMARK       I    between atoms: C5_5  and  C6_12 
REMARK       I    between atoms: C4_6  and  O4_22 
REMARK       I    between atoms: C6_8  and  C5_90 
REMARK       I    between atoms: C6_8  and  O6_83 
REMARK       I    between atoms: O3_11  and  C3_60 
REMARK       I    between atoms: O3_11  and  C1_29 
REMARK       I    between atoms: C5_13  and  C6_18 
REMARK       I    between atoms: O4_14  and  C4_88 
REMARK       I    between atoms: O4_14  and  S_15 
REMARK       I    between atoms: C6_16  and  C5_28 
REMARK       I    between atoms: S_17  and  O4_22 
REMARK       I    between atoms: C6_18  and  O6_66 
REMARK       I    between atoms: O4_20  and  C4_46 
REMARK       I    between atoms: O4_20  and  C1_61 
REMARK       I    between atoms: O4_21  and  C4_54 
REMARK       I    between atoms: O4_21  and  S_40 
REMARK       I    between atoms: O4_24  and  C4_35 
REMARK       I    between atoms: O3_25  and  C3_48 
REMARK       I    between atoms: C6_26  and  C5_50 
REMARK       I    between atoms: C2_27  and  O2_55 
REMARK       I    between atoms: O3_31  and  C3_37 
REMARK       I    between atoms: C2_32  and  N_72 
REMARK       I    between atoms: C7_33  and  C8_39 
REMARK       I    between atoms: C7_33  and  N_52 
REMARK       I    between atoms: C1_34  and  O4_86 
REMARK       I    between atoms: C3_36  and  O3_87 
REMARK       I    between atoms: C2_47  and  O2_85 
REMARK       I    between atoms: N_52  and  C2_71 
REMARK       I    between atoms: C3_53  and  O3_81 
REMARK       I    between atoms: C1_56  and  O3_81 
REMARK       I    between atoms: C7_57  and  C8_64 
REMARK       I    between atoms: C7_57  and  N_63 
REMARK       I    between atoms: C8_58  and  C7_73 
REMARK       I    between atoms: C1_59  and  O1_68 
REMARK       I    between atoms: N_63  and  C2_67 
REMARK       I    between atoms: C4_69  and  O4_86 
REMARK       I    between atoms: N_72  and  C7_73 
REMARK       I    between atoms: C2_77  and  O2_82 
ROOT
ATOM      1  OSB ASG d 302      16.972  38.963  44.072  0.00  0.00    -0.572 OA
ATOM      2  O6  ASG d 302      14.970  36.724  40.865  0.00  0.00    -0.398 OA
ATOM      3  O4  ASG d 302      17.877  36.647  44.073  0.00  0.00    -0.246 OA
ATOM      4  S   ASG d 302      17.716  38.019  44.883  0.00  0.00     0.252 S 
ATOM      5  C6  ASG d 302      15.764  36.941  42.027  0.00  0.00     0.043 C 
ATOM      6  C2  ASG d 302      18.381  33.915  43.570  0.00  0.00     0.087 C 
ATOM      7  C1  ASG d 302      17.852  33.886  42.144  0.00  0.00     0.154 C 
ATOM      8  O5  ASG d 302      17.331  35.171  41.736  0.00  0.00    -0.349 OA
ATOM      9  C5  ASG d 302      16.255  35.630  42.587  0.00  0.00     0.090 C 
ATOM     10  O7  ASG d 302      20.979  33.248  44.617  0.00  0.00    -0.274 OA
ATOM     11  C3  ASG d 302      17.240  34.342  44.476  0.00  0.00     0.094 C 
ATOM     12  C8  ASG d 302      20.434  30.916  44.799  0.00  0.00    -0.003 C 
ATOM     13  OSA ASG d 302      17.011  37.786  46.129  0.00  0.00    -0.572 OA
ATOM     14  N   ASG d 302      18.870  32.559  43.959  0.00  0.00    -0.349 N 
ATOM     15  C7  ASG d 302      20.154  32.362  44.459  0.00  0.00     0.214 C 
ATOM     16  OSC ASG d 302      19.027  38.559  45.165  0.00  0.00    -0.572 OA
ATOM     17  O3  ASG d 302      17.738  34.426  45.762  0.00  0.00    -0.348 OA
ATOM     18  C4  ASG d 302      16.761  35.737  44.040  0.00  0.00     0.114 C 
ATOM     19  H   ASG d 302      14.663  37.576  40.519  0.00  0.00     0.209 HD
ATOM     20  H   ASG d 302      15.174  37.440  42.768  0.00  0.00     0.078 H 
ATOM     21  H   ASG d 302      16.609  37.541  41.761  0.00  0.00     0.078 H 
ATOM     22  H   ASG d 302      19.199  34.600  43.655  0.00  0.00     0.084 H 
ATOM     23  H   ASG d 302      17.061  33.166  42.111  0.00  0.00     0.132 H 
ATOM     24  H   ASG d 302      15.432  34.946  42.606  0.00  0.00     0.090 H 
ATOM     25  H   ASG d 302      16.429  33.646  44.425  0.00  0.00     0.091 H 
ATOM     26  H   ASG d 302      21.430  30.825  45.177  0.00  0.00     0.040 H 
ATOM     27  H   ASG d 302      20.330  30.317  43.918  0.00  0.00     0.040 H 
ATOM     28  H   ASG d 302      19.739  30.583  45.541  0.00  0.00     0.040 H 
ATOM     29  H   ASG d 302      18.270  31.785  43.860  0.00  0.00     0.163 HD
ATOM     30  H   ASG d 302      15.987  36.088  44.689  0.00  0.00     0.093 H 
ATOM     31  C6  BDP d 303      13.523  33.835  47.774  0.00  0.00     0.206 C 
ATOM     32  O4  BDP d 303      14.953  32.584  50.058  0.00  0.00    -0.348 OA
ATOM     33  O3  BDP d 303      17.760  32.886  50.279  0.00  0.00    -0.390 OA
ATOM     34  C3  BDP d 303      17.079  32.818  49.016  0.00  0.00     0.092 C 
ATOM     35  O6B BDP d 303      13.361  34.942  48.325  0.00  0.00    -0.646 OA
ATOM     36  C4  BDP d 303      15.652  33.368  49.152  0.00  0.00     0.103 C 
ATOM     37  C2  BDP d 303      17.821  33.675  48.009  0.00  0.00     0.110 C 
ATOM     38  O6A BDP d 303      12.685  33.087  47.221  0.00  0.00    -0.646 OA
ATOM     39  C1  BDP d 303      17.087  33.618  46.678  0.00  0.00     0.160 C 
ATOM     40  C5  BDP d 303      14.953  33.297  47.768  0.00  0.00     0.152 C 
ATOM     41  O5  BDP d 303      15.716  34.080  46.808  0.00  0.00    -0.340 OA
ATOM     42  O2  BDP d 303      19.153  33.186  47.823  0.00  0.00    -0.388 OA
ATOM     43  H   BDP d 303      18.659  32.535  50.181  0.00  0.00     0.210 HD
ATOM     44  H   BDP d 303      17.043  31.797  48.697  0.00  0.00     0.091 H 
ATOM     45  H   BDP d 303      15.678  34.382  49.495  0.00  0.00     0.092 H 
ATOM     46  H   BDP d 303      17.864  34.681  48.371  0.00  0.00     0.094 H 
ATOM     47  H   BDP d 303      17.077  32.600  46.350  0.00  0.00     0.133 H 
ATOM     48  H   BDP d 303      14.909  32.261  47.507  0.00  0.00     0.104 H 
ATOM     49  H   BDP d 303      19.120  32.274  47.494  0.00  0.00     0.210 HD
ATOM     50  C1  ASG d 306       6.662  35.960  52.181  0.00  0.00     0.151 C 
ATOM     51  C4  ASG d 306       5.333  38.548  52.539  0.00  0.00     0.089 C 
ATOM     52  C6  ASG d 306       7.677  39.456  52.926  0.00  0.00     0.043 C 
ATOM     53  S   ASG d 306       4.282  39.584  54.652  0.00  0.00     0.252 S 
ATOM     54  O4  ASG d 306       5.127  38.439  53.949  0.00  0.00    -0.249 OA
ATOM     55  OSB ASG d 306       4.163  39.280  56.067  0.00  0.00    -0.572 OA
ATOM     56  OSA ASG d 306       4.967  40.853  54.486  0.00  0.00    -0.572 OA
ATOM     57  C3  ASG d 306       4.526  37.401  51.833  0.00  0.00    -0.014 C 
ATOM     58  C7  ASG d 306       4.134  33.735  52.543  0.00  0.00     0.214 C 
ATOM     59  N   ASG d 306       4.548  34.824  51.772  0.00  0.00    -0.352 N 
ATOM     60  C8  ASG d 306       3.537  32.629  51.710  0.00  0.00    -0.003 C 
ATOM     61  C2  ASG d 306       5.181  36.025  52.403  0.00  0.00     0.062 C 
ATOM     62  O5  ASG d 306       7.325  37.098  52.778  0.00  0.00    -0.349 OA
ATOM     63  O6  ASG d 306       9.071  39.218  52.740  0.00  0.00    -0.398 OA
ATOM     64  O7  ASG d 306       4.243  33.663  53.764  0.00  0.00    -0.274 OA
ATOM     65  OSC ASG d 306       2.968  39.659  54.054  0.00  0.00    -0.572 OA
ATOM     66  C5  ASG d 306       6.854  38.378  52.255  0.00  0.00     0.088 C 
ATOM     67  H   ASG d 306       6.866  35.979  51.131  0.00  0.00     0.132 H 
ATOM     68  H   ASG d 306       5.003  39.498  52.172  0.00  0.00     0.089 H 
ATOM     69  H   ASG d 306       7.459  39.462  53.975  0.00  0.00     0.078 H 
ATOM     70  H   ASG d 306       7.429  40.400  52.489  0.00  0.00     0.078 H 
ATOM     71  H   ASG d 306       4.636  37.460  50.771  0.00  0.00     0.040 H 
ATOM     72  H   ASG d 306       3.476  37.462  52.033  0.00  0.00     0.040 H 
ATOM     73  H   ASG d 306       4.421  34.802  50.796  0.00  0.00     0.163 HD
ATOM     74  H   ASG d 306       3.546  32.914  50.679  0.00  0.00     0.040 H 
ATOM     75  H   ASG d 306       2.529  32.452  52.022  0.00  0.00     0.040 H 
ATOM     76  H   ASG d 306       4.112  31.735  51.838  0.00  0.00     0.040 H 
ATOM     77  H   ASG d 306       4.996  36.026  53.457  0.00  0.00     0.080 H 
ATOM     78  H   ASG d 306       9.309  38.363  53.132  0.00  0.00     0.209 HD
ATOM     79  H   ASG d 306       6.974  38.437  51.193  0.00  0.00     0.090 H 
ATOM     80  C5  BDP d 305       8.618  32.978  52.114  0.00  0.00     0.152 C 
ATOM     81  O6B BDP d 305       9.138  33.699  49.941  0.00  0.00    -0.646 OA
ATOM     82  C6  BDP d 305       8.288  33.108  50.633  0.00  0.00     0.206 C 
ATOM     83  O4  BDP d 305       7.138  34.779  52.743  0.00  0.00    -0.348 OA
ATOM     84  O3  BDP d 305       8.591  35.259  55.138  0.00  0.00    -0.390 OA
ATOM     85  C2  BDP d 305      10.228  33.664  54.435  0.00  0.00     0.110 C 
ATOM     86  C1  BDP d 305      10.449  32.386  53.612  0.00  0.00     0.160 C 
ATOM     87  C4  BDP d 305       8.423  34.297  52.896  0.00  0.00     0.103 C 
ATOM     88  O6A BDP d 305       7.189  32.602  50.297  0.00  0.00    -0.646 OA
ATOM     89  C3  BDP d 305       8.765  34.060  54.379  0.00  0.00     0.092 C 
ATOM     90  O2  BDP d 305      10.645  33.414  55.780  0.00  0.00    -0.388 OA
ATOM     91  O5  BDP d 305      10.017  32.573  52.231  0.00  0.00    -0.340 OA
ATOM     92  H   BDP d 305       7.949  32.257  52.536  0.00  0.00     0.104 H 
ATOM     93  H   BDP d 305       8.812  35.088  56.067  0.00  0.00     0.210 HD
ATOM     94  H   BDP d 305      10.802  34.473  54.036  0.00  0.00     0.094 H 
ATOM     95  H   BDP d 305       9.869  31.605  54.057  0.00  0.00     0.133 H 
ATOM     96  H   BDP d 305       9.082  35.043  52.504  0.00  0.00     0.092 H 
ATOM     97  H   BDP d 305       8.126  33.305  54.786  0.00  0.00     0.091 H 
ATOM     98  H   BDP d 305      10.128  32.681  56.148  0.00  0.00     0.210 HD
ATOM     99  O6B BDP d 301      18.419  30.079  40.250  0.00  0.00    -0.646 OA
ATOM    100  C6  BDP d 301      19.388  30.775  40.627  0.00  0.00     0.206 C 
ATOM    101  O6A BDP d 301      20.163  30.611  41.594  0.00  0.00    -0.646 OA
ATOM    102  O5  BDP d 301      19.709  31.614  38.392  0.00  0.00    -0.340 OA
ATOM    103  C5  BDP d 301      19.671  32.010  39.782  0.00  0.00     0.152 C 
ATOM    104  C3  BDP d 301      19.022  34.316  39.046  0.00  0.00     0.092 C 
ATOM    105  C1  BDP d 301      19.992  32.726  37.488  0.00  0.00     0.156 C 
ATOM    106  O1  BDP d 301      20.045  32.148  36.095  0.00  0.00    -0.368 OA
ATOM    107  C4  BDP d 301      18.662  33.139  39.988  0.00  0.00     0.103 C 
ATOM    108  C2  BDP d 301      18.977  33.826  37.607  0.00  0.00     0.110 C 
ATOM    109  O2  BDP d 301      19.327  34.863  36.693  0.00  0.00    -0.388 OA
ATOM    110  O4  BDP d 301      18.865  33.551  41.290  0.00  0.00    -0.348 OA
ATOM    111  O3  BDP d 301      18.076  35.375  39.205  0.00  0.00    -0.390 OA
ATOM    112  H   BDP d 301      20.614  32.408  40.095  0.00  0.00     0.104 H 
ATOM    113  H   BDP d 301      20.000  34.676  39.287  0.00  0.00     0.091 H 
ATOM    114  H   BDP d 301      20.924  33.186  37.739  0.00  0.00     0.133 H 
ATOM    115  H   BDP d 301      19.193  31.735  35.883  0.00  0.00     0.212 HD
ATOM    116  H   BDP d 301      17.656  32.831  39.793  0.00  0.00     0.092 H 
ATOM    117  H   BDP d 301      17.988  33.495  37.371  0.00  0.00     0.094 H 
ATOM    118  H   BDP d 301      20.223  35.179  36.890  0.00  0.00     0.210 HD
ATOM    119  H   BDP d 301      17.188  35.050  38.988  0.00  0.00     0.210 HD
ATOM    120  OSC ASG d 304      15.243  30.862  56.331  0.00  0.00    -0.572 OA
ATOM    121  O3  ASG d 304      11.816  32.033  53.621  0.00  0.00    -0.348 OA
ATOM    122  C5  ASG d 304      14.728  34.388  53.190  0.00  0.00     0.090 C 
ATOM    123  C6  ASG d 304      15.850  34.914  54.051  0.00  0.00     0.043 C 
ATOM    124  O4  ASG d 304      14.553  32.313  54.440  0.00  0.00    -0.246 OA
ATOM    125  C7  ASG d 304      12.480  30.634  50.030  0.00  0.00     0.214 C 
ATOM    126  C8  ASG d 304      11.295  30.369  49.129  0.00  0.00    -0.003 C 
ATOM    127  S   ASG d 304      14.529  32.084  56.019  0.00  0.00     0.252 S 
ATOM    128  OSB ASG d 304      15.165  33.204  56.691  0.00  0.00    -0.572 OA
ATOM    129  N   ASG d 304      12.312  31.762  50.820  0.00  0.00    -0.349 N 
ATOM    130  C4  ASG d 304      13.786  33.422  53.946  0.00  0.00     0.114 C 
ATOM    131  C3  ASG d 304      12.701  32.929  52.967  0.00  0.00     0.094 C 
ATOM    132  C1  ASG d 304      14.311  33.212  51.113  0.00  0.00     0.154 C 
ATOM    133  O7  ASG d 304      13.472  29.924  50.047  0.00  0.00    -0.274 OA
ATOM    134  O6  ASG d 304      16.415  36.095  53.480  0.00  0.00    -0.398 OA
ATOM    135  O5  ASG d 304      15.320  33.713  52.039  0.00  0.00    -0.349 OA
ATOM    136  C2  ASG d 304      13.358  32.223  51.793  0.00  0.00     0.087 C 
ATOM    137  OSA ASG d 304      13.153  31.978  56.476  0.00  0.00    -0.572 OA
ATOM    138  H   ASG d 304      14.124  35.216  52.885  0.00  0.00     0.090 H 
ATOM    139  H   ASG d 304      16.610  34.167  54.134  0.00  0.00     0.078 H 
ATOM    140  H   ASG d 304      15.458  35.154  55.017  0.00  0.00     0.078 H 
ATOM    141  H   ASG d 304      10.550  31.121  49.289  0.00  0.00     0.040 H 
ATOM    142  H   ASG d 304      10.884  29.407  49.354  0.00  0.00     0.040 H 
ATOM    143  H   ASG d 304      11.611  30.392  48.107  0.00  0.00     0.040 H 
ATOM    144  H   ASG d 304      11.478  32.278  50.738  0.00  0.00     0.163 HD
ATOM    145  H   ASG d 304      13.320  33.918  54.771  0.00  0.00     0.093 H 
ATOM    146  H   ASG d 304      12.143  33.772  52.617  0.00  0.00     0.091 H 
ATOM    147  H   ASG d 304      13.727  34.039  50.766  0.00  0.00     0.132 H 
ATOM    148  H   ASG d 304      16.774  35.889  52.602  0.00  0.00     0.209 HD
ATOM    149  H   ASG d 304      13.900  31.365  52.133  0.00  0.00     0.084 H 
ENDROOT
TORSDOF 38
ENDMDL
MODEL 80
REMARK VINA RESULT:      -3.5      7.865     13.392
REMARK  0 active torsions:
REMARK  status: ('A' for Active; 'I' for Inactive)
REMARK       I    between atoms: C6_2  and  C5_74 
REMARK       I    between atoms: C1_3  and  O4_24 
REMARK       I    between atoms: O6_4  and  C6_26 
REMARK       I    between atoms: C5_5  and  C6_12 
REMARK       I    between atoms: C4_6  and  O4_22 
REMARK       I    between atoms: C6_8  and  C5_90 
REMARK       I    between atoms: C6_8  and  O6_83 
REMARK       I    between atoms: O3_11  and  C3_60 
REMARK       I    between atoms: O3_11  and  C1_29 
REMARK       I    between atoms: C5_13  and  C6_18 
REMARK       I    between atoms: O4_14  and  C4_88 
REMARK       I    between atoms: O4_14  and  S_15 
REMARK       I    between atoms: C6_16  and  C5_28 
REMARK       I    between atoms: S_17  and  O4_22 
REMARK       I    between atoms: C6_18  and  O6_66 
REMARK       I    between atoms: O4_20  and  C4_46 
REMARK       I    between atoms: O4_20  and  C1_61 
REMARK       I    between atoms: O4_21  and  C4_54 
REMARK       I    between atoms: O4_21  and  S_40 
REMARK       I    between atoms: O4_24  and  C4_35 
REMARK       I    between atoms: O3_25  and  C3_48 
REMARK       I    between atoms: C6_26  and  C5_50 
REMARK       I    between atoms: C2_27  and  O2_55 
REMARK       I    between atoms: O3_31  and  C3_37 
REMARK       I    between atoms: C2_32  and  N_72 
REMARK       I    between atoms: C7_33  and  C8_39 
REMARK       I    between atoms: C7_33  and  N_52 
REMARK       I    between atoms: C1_34  and  O4_86 
REMARK       I    between atoms: C3_36  and  O3_87 
REMARK       I    between atoms: C2_47  and  O2_85 
REMARK       I    between atoms: N_52  and  C2_71 
REMARK       I    between atoms: C3_53  and  O3_81 
REMARK       I    between atoms: C1_56  and  O3_81 
REMARK       I    between atoms: C7_57  and  C8_64 
REMARK       I    between atoms: C7_57  and  N_63 
REMARK       I    between atoms: C8_58  and  C7_73 
REMARK       I    between atoms: C1_59  and  O1_68 
REMARK       I    between atoms: N_63  and  C2_67 
REMARK       I    between atoms: C4_69  and  O4_86 
REMARK       I    between atoms: N_72  and  C7_73 
REMARK       I    between atoms: C2_77  and  O2_82 
ROOT
ATOM      1  OSB ASG d 302      10.336  30.630  50.048  0.00  0.00    -0.572 OA
ATOM      2  O6  ASG d 302       9.011  34.370  51.937  0.00  0.00    -0.398 OA
ATOM      3  O4  ASG d 302      12.137  32.319  49.751  0.00  0.00    -0.246 OA
ATOM      4  S   ASG d 302      11.532  30.913  49.279  0.00  0.00     0.252 S 
ATOM      5  C6  ASG d 302       9.808  33.507  51.130  0.00  0.00     0.043 C 
ATOM      6  C2  ASG d 302      13.679  34.683  49.711  0.00  0.00     0.087 C 
ATOM      7  C1  ASG d 302      12.996  35.374  50.882  0.00  0.00     0.154 C 
ATOM      8  O5  ASG d 302      11.915  34.578  51.421  0.00  0.00    -0.349 OA
ATOM      9  C5  ASG d 302      10.896  34.286  50.436  0.00  0.00     0.090 C 
ATOM     10  O7  ASG d 302      16.441  33.976  49.308  0.00  0.00    -0.274 OA
ATOM     11  C3  ASG d 302      12.625  34.424  48.650  0.00  0.00     0.094 C 
ATOM     12  C8  ASG d 302      16.988  36.144  48.432  0.00  0.00    -0.003 C 
ATOM     13  OSA ASG d 302      11.203  30.958  47.866  0.00  0.00    -0.572 OA
ATOM     14  N   ASG d 302      14.758  35.558  49.164  0.00  0.00    -0.349 N 
ATOM     15  C7  ASG d 302      16.064  35.099  49.012  0.00  0.00     0.214 C 
ATOM     16  OSC ASG d 302      12.510  29.875  49.512  0.00  0.00    -0.572 OA
ATOM     17  O3  ASG d 302      13.235  33.744  47.613  0.00  0.00    -0.348 OA
ATOM     18  C4  ASG d 302      11.531  33.527  49.253  0.00  0.00     0.114 C 
ATOM     19  H   ASG d 302       8.318  33.853  52.375  0.00  0.00     0.209 HD
ATOM     20  H   ASG d 302       9.187  33.040  50.395  0.00  0.00     0.078 H 
ATOM     21  H   ASG d 302      10.259  32.767  51.758  0.00  0.00     0.078 H 
ATOM     22  H   ASG d 302      14.125  33.762  50.024  0.00  0.00     0.084 H 
ATOM     23  H   ASG d 302      12.597  36.298  50.519  0.00  0.00     0.132 H 
ATOM     24  H   ASG d 302      10.462  35.173  50.025  0.00  0.00     0.090 H 
ATOM     25  H   ASG d 302      12.195  35.341  48.305  0.00  0.00     0.091 H 
ATOM     26  H   ASG d 302      17.972  35.737  48.338  0.00  0.00     0.040 H 
ATOM     27  H   ASG d 302      17.014  36.996  49.079  0.00  0.00     0.040 H 
ATOM     28  H   ASG d 302      16.631  36.440  47.467  0.00  0.00     0.040 H 
ATOM     29  H   ASG d 302      14.542  36.483  48.904  0.00  0.00     0.163 HD
ATOM     30  H   ASG d 302      10.794  33.286  48.515  0.00  0.00     0.093 H 
ATOM     31  C6  BDP d 303      10.061  35.117  44.420  0.00  0.00     0.206 C 
ATOM     32  O4  BDP d 303      12.232  34.932  42.400  0.00  0.00    -0.348 OA
ATOM     33  O3  BDP d 303      14.632  33.579  43.053  0.00  0.00    -0.390 OA
ATOM     34  C3  BDP d 303      13.856  34.304  44.020  0.00  0.00     0.092 C 
ATOM     35  O6B BDP d 303       9.528  34.029  44.125  0.00  0.00    -0.646 OA
ATOM     36  C4  BDP d 303      12.372  34.295  43.624  0.00  0.00     0.103 C 
ATOM     37  C2  BDP d 303      13.987  33.623  45.369  0.00  0.00     0.110 C 
ATOM     38  O6A BDP d 303       9.550  36.256  44.521  0.00  0.00    -0.646 OA
ATOM     39  C1  BDP d 303      13.149  34.379  46.387  0.00  0.00     0.160 C 
ATOM     40  C5  BDP d 303      11.562  35.070  44.698  0.00  0.00     0.152 C 
ATOM     41  O5  BDP d 303      11.752  34.431  45.991  0.00  0.00    -0.340 OA
ATOM     42  O2  BDP d 303      15.352  33.627  45.799  0.00  0.00    -0.388 OA
ATOM     43  H   BDP d 303      15.566  33.591  43.313  0.00  0.00     0.210 HD
ATOM     44  H   BDP d 303      14.212  35.311  44.065  0.00  0.00     0.091 H 
ATOM     45  H   BDP d 303      12.014  33.289  43.554  0.00  0.00     0.092 H 
ATOM     46  H   BDP d 303      13.651  32.611  45.283  0.00  0.00     0.094 H 
ATOM     47  H   BDP d 303      13.526  35.378  46.448  0.00  0.00     0.133 H 
ATOM     48  H   BDP d 303      11.928  36.075  44.682  0.00  0.00     0.104 H 
ATOM     49  H   BDP d 303      15.663  34.543  45.880  0.00  0.00     0.210 HD
ATOM     50  C1  ASG d 306       3.746  34.289  38.901  0.00  0.00     0.151 C 
ATOM     51  C4  ASG d 306       1.510  32.396  38.810  0.00  0.00     0.089 C 
ATOM     52  C6  ASG d 306       3.264  30.629  39.323  0.00  0.00     0.043 C 
ATOM     53  S   ASG d 306       0.465  31.174  36.797  0.00  0.00     0.252 S 
ATOM     54  O4  ASG d 306       1.596  32.099  37.416  0.00  0.00    -0.249 OA
ATOM     55  OSB ASG d 306       0.713  31.012  35.375  0.00  0.00    -0.572 OA
ATOM     56  OSA ASG d 306       0.502  29.875  37.445  0.00  0.00    -0.572 OA
ATOM     57  C3  ASG d 306       1.173  33.923  38.967  0.00  0.00    -0.014 C 
ATOM     58  C7  ASG d 306       2.513  37.022  37.327  0.00  0.00     0.214 C 
ATOM     59  N   ASG d 306       2.291  36.179  38.418  0.00  0.00    -0.352 N 
ATOM     60  C8  ASG d 306       2.326  38.479  37.671  0.00  0.00    -0.003 C 
ATOM     61  C2  ASG d 306       2.438  34.695  38.295  0.00  0.00     0.062 C 
ATOM     62  O5  ASG d 306       3.941  32.859  38.802  0.00  0.00    -0.349 OA
ATOM     63  O6  ASG d 306       4.576  30.393  39.832  0.00  0.00    -0.398 OA
ATOM     64  O7  ASG d 306       2.834  36.640  36.205  0.00  0.00    -0.274 OA
ATOM     65  OSC ASG d 306      -0.831  31.783  37.002  0.00  0.00    -0.572 OA
ATOM     66  C5  ASG d 306       2.890  32.088  39.461  0.00  0.00     0.088 C 
ATOM     67  H   ASG d 306       3.753  34.547  39.939  0.00  0.00     0.132 H 
ATOM     68  H   ASG d 306       0.750  31.810  39.285  0.00  0.00     0.089 H 
ATOM     69  H   ASG d 306       3.234  30.354  38.289  0.00  0.00     0.078 H 
ATOM     70  H   ASG d 306       2.568  30.041  39.885  0.00  0.00     0.078 H 
ATOM     71  H   ASG d 306       1.078  34.184  40.001  0.00  0.00     0.040 H 
ATOM     72  H   ASG d 306       0.246  34.183  38.502  0.00  0.00     0.040 H 
ATOM     73  H   ASG d 306       2.033  36.569  39.285  0.00  0.00     0.163 HD
ATOM     74  H   ASG d 306       2.048  38.569  38.700  0.00  0.00     0.040 H 
ATOM     75  H   ASG d 306       1.555  38.894  37.056  0.00  0.00     0.040 H 
ATOM     76  H   ASG d 306       3.241  39.006  37.500  0.00  0.00     0.040 H 
ATOM     77  H   ASG d 306       2.439  34.411  37.263  0.00  0.00     0.080 H 
ATOM     78  H   ASG d 306       5.217  30.921  39.330  0.00  0.00     0.209 HD
ATOM     79  H   ASG d 306       2.802  32.346  40.496  0.00  0.00     0.090 H 
ATOM     80  C5  BDP d 305       6.757  36.200  38.804  0.00  0.00     0.152 C 
ATOM     81  O6B BDP d 305       6.565  36.105  41.142  0.00  0.00    -0.646 OA
ATOM     82  C6  BDP d 305       6.173  36.698  40.119  0.00  0.00     0.206 C 
ATOM     83  O4  BDP d 305       4.766  34.959  38.232  0.00  0.00    -0.348 OA
ATOM     84  O3  BDP d 305       6.231  33.220  36.526  0.00  0.00    -0.390 OA
ATOM     85  C2  BDP d 305       8.260  34.249  37.260  0.00  0.00     0.110 C 
ATOM     86  C1  BDP d 305       8.876  35.555  37.783  0.00  0.00     0.160 C 
ATOM     87  C4  BDP d 305       6.140  34.862  38.335  0.00  0.00     0.103 C 
ATOM     88  O6A BDP d 305       5.361  37.648  40.003  0.00  0.00    -0.646 OA
ATOM     89  C3  BDP d 305       6.781  34.453  36.996  0.00  0.00     0.092 C 
ATOM     90  O2  BDP d 305       8.951  33.870  36.067  0.00  0.00    -0.388 OA
ATOM     91  O5  BDP d 305       8.192  36.008  38.991  0.00  0.00    -0.340 OA
ATOM     92  H   BDP d 305       6.539  36.931  38.053  0.00  0.00     0.104 H 
ATOM     93  H   BDP d 305       6.648  32.980  35.683  0.00  0.00     0.210 HD
ATOM     94  H   BDP d 305       8.359  33.469  37.984  0.00  0.00     0.094 H 
ATOM     95  H   BDP d 305       8.766  36.298  37.021  0.00  0.00     0.133 H 
ATOM     96  H   BDP d 305       6.343  34.104  39.062  0.00  0.00     0.092 H 
ATOM     97  H   BDP d 305       6.602  35.207  36.259  0.00  0.00     0.091 H 
ATOM     98  H   BDP d 305       8.865  34.574  35.405  0.00  0.00     0.210 HD
ATOM     99  O6B BDP d 301      14.836  39.113  51.897  0.00  0.00    -0.646 OA
ATOM    100  C6  BDP d 301      15.458  38.030  51.984  0.00  0.00     0.206 C 
ATOM    101  O6A BDP d 301      16.371  37.572  51.263  0.00  0.00    -0.646 OA
ATOM    102  O5  BDP d 301      15.029  37.924  54.352  0.00  0.00    -0.340 OA
ATOM    103  C5  BDP d 301      15.045  37.132  53.143  0.00  0.00     0.152 C 
ATOM    104  C3  BDP d 301      13.360  35.603  54.193  0.00  0.00     0.092 C 
ATOM    105  C1  BDP d 301      14.659  37.154  55.537  0.00  0.00     0.156 C 
ATOM    106  O1  BDP d 301      14.734  38.101  56.710  0.00  0.00    -0.368 OA
ATOM    107  C4  BDP d 301      13.695  36.446  52.937  0.00  0.00     0.103 C 
ATOM    108  C2  BDP d 301      13.303  36.524  55.403  0.00  0.00     0.110 C 
ATOM    109  O2  BDP d 301      13.024  35.797  56.597  0.00  0.00    -0.388 OA
ATOM    110  O4  BDP d 301      13.905  35.581  51.880  0.00  0.00    -0.348 OA
ATOM    111  O3  BDP d 301      12.089  34.971  54.032  0.00  0.00    -0.390 OA
ATOM    112  H   BDP d 301      15.762  36.341  53.211  0.00  0.00     0.104 H 
ATOM    113  H   BDP d 301      14.113  34.855  54.329  0.00  0.00     0.091 H 
ATOM    114  H   BDP d 301      15.330  36.332  55.674  0.00  0.00     0.133 H 
ATOM    115  H   BDP d 301      14.121  38.839  56.569  0.00  0.00     0.212 HD
ATOM    116  H   BDP d 301      12.903  37.143  52.762  0.00  0.00     0.092 H 
ATOM    117  H   BDP d 301      12.528  37.249  55.266  0.00  0.00     0.094 H 
ATOM    118  H   BDP d 301      13.716  35.132  56.740  0.00  0.00     0.210 HD
ATOM    119  H   BDP d 301      11.405  35.647  53.907  0.00  0.00     0.210 HD
ATOM    120  OSC ASG d 304      14.223  34.244  36.238  0.00  0.00    -0.572 OA
ATOM    121  O3  ASG d 304      10.244  35.365  38.075  0.00  0.00    -0.348 OA
ATOM    122  C5  ASG d 304      11.752  32.402  39.853  0.00  0.00     0.090 C 
ATOM    123  C6  ASG d 304      12.659  31.252  39.491  0.00  0.00     0.043 C 
ATOM    124  O4  ASG d 304      12.686  33.859  38.148  0.00  0.00    -0.246 OA
ATOM    125  C7  ASG d 304      10.867  37.535  41.269  0.00  0.00     0.214 C 
ATOM    126  C8  ASG d 304       9.785  38.494  41.710  0.00  0.00    -0.003 C 
ATOM    127  S   ASG d 304      13.014  33.542  36.618  0.00  0.00     0.252 S 
ATOM    128  OSB ASG d 304      13.204  32.114  36.438  0.00  0.00    -0.572 OA
ATOM    129  N   ASG d 304      10.358  36.351  40.755  0.00  0.00    -0.349 N 
ATOM    130  C4  ASG d 304      11.449  33.334  38.656  0.00  0.00     0.114 C 
ATOM    131  C3  ASG d 304      10.542  34.482  39.144  0.00  0.00     0.094 C 
ATOM    132  C1  ASG d 304      11.558  34.267  41.387  0.00  0.00     0.154 C 
ATOM    133  O7  ASG d 304      12.057  37.788  41.362  0.00  0.00    -0.274 OA
ATOM    134  O6  ASG d 304      12.563  30.208  40.462  0.00  0.00    -0.398 OA
ATOM    135  O5  ASG d 304      12.386  33.158  40.928  0.00  0.00    -0.349 OA
ATOM    136  C2  ASG d 304      11.244  35.248  40.253  0.00  0.00     0.087 C 
ATOM    137  OSA ASG d 304      11.909  33.981  35.782  0.00  0.00    -0.572 OA
ATOM    138  H   ASG d 304      10.811  32.001  40.163  0.00  0.00     0.090 H 
ATOM    139  H   ASG d 304      13.669  31.600  39.450  0.00  0.00     0.078 H 
ATOM    140  H   ASG d 304      12.361  30.865  38.540  0.00  0.00     0.078 H 
ATOM    141  H   ASG d 304       8.825  38.056  41.532  0.00  0.00     0.040 H 
ATOM    142  H   ASG d 304       9.869  39.406  41.158  0.00  0.00     0.040 H 
ATOM    143  H   ASG d 304       9.894  38.699  42.755  0.00  0.00     0.040 H 
ATOM    144  H   ASG d 304       9.382  36.231  40.719  0.00  0.00     0.163 HD
ATOM    145  H   ASG d 304      10.953  32.797  37.875  0.00  0.00     0.093 H 
ATOM    146  H   ASG d 304       9.628  34.065  39.514  0.00  0.00     0.091 H 
ATOM    147  H   ASG d 304      10.629  33.873  41.743  0.00  0.00     0.132 H 
ATOM    148  H   ASG d 304      12.832  30.548  41.330  0.00  0.00     0.209 HD
ATOM    149  H   ASG d 304      12.148  35.686  39.884  0.00  0.00     0.084 H 
ENDROOT
TORSDOF 38
ENDMDL
MODEL 81
REMARK VINA RESULT:      -3.4      4.057      5.687
REMARK  0 active torsions:
REMARK  status: ('A' for Active; 'I' for Inactive)
REMARK       I    between atoms: C6_2  and  C5_74 
REMARK       I    between atoms: C1_3  and  O4_24 
REMARK       I    between atoms: O6_4  and  C6_26 
REMARK       I    between atoms: C5_5  and  C6_12 
REMARK       I    between atoms: C4_6  and  O4_22 
REMARK       I    between atoms: C6_8  and  C5_90 
REMARK       I    between atoms: C6_8  and  O6_83 
REMARK       I    between atoms: O3_11  and  C3_60 
REMARK       I    between atoms: O3_11  and  C1_29 
REMARK       I    between atoms: C5_13  and  C6_18 
REMARK       I    between atoms: O4_14  and  C4_88 
REMARK       I    between atoms: O4_14  and  S_15 
REMARK       I    between atoms: C6_16  and  C5_28 
REMARK       I    between atoms: S_17  and  O4_22 
REMARK       I    between atoms: C6_18  and  O6_66 
REMARK       I    between atoms: O4_20  and  C4_46 
REMARK       I    between atoms: O4_20  and  C1_61 
REMARK       I    between atoms: O4_21  and  C4_54 
REMARK       I    between atoms: O4_21  and  S_40 
REMARK       I    between atoms: O4_24  and  C4_35 
REMARK       I    between atoms: O3_25  and  C3_48 
REMARK       I    between atoms: C6_26  and  C5_50 
REMARK       I    between atoms: C2_27  and  O2_55 
REMARK       I    between atoms: O3_31  and  C3_37 
REMARK       I    between atoms: C2_32  and  N_72 
REMARK       I    between atoms: C7_33  and  C8_39 
REMARK       I    between atoms: C7_33  and  N_52 
REMARK       I    between atoms: C1_34  and  O4_86 
REMARK       I    between atoms: C3_36  and  O3_87 
REMARK       I    between atoms: C2_47  and  O2_85 
REMARK       I    between atoms: N_52  and  C2_71 
REMARK       I    between atoms: C3_53  and  O3_81 
REMARK       I    between atoms: C1_56  and  O3_81 
REMARK       I    between atoms: C7_57  and  C8_64 
REMARK       I    between atoms: C7_57  and  N_63 
REMARK       I    between atoms: C8_58  and  C7_73 
REMARK       I    between atoms: C1_59  and  O1_68 
REMARK       I    between atoms: N_63  and  C2_67 
REMARK       I    between atoms: C4_69  and  O4_86 
REMARK       I    between atoms: N_72  and  C7_73 
REMARK       I    between atoms: C2_77  and  O2_82 
ROOT
ATOM      1  OSB ASG d 302      15.003  39.989  47.333  0.00  0.00    -0.572 OA
ATOM      2  O6  ASG d 302      13.038  38.546  43.676  0.00  0.00    -0.398 OA
ATOM      3  O4  ASG d 302      15.695  37.628  46.971  0.00  0.00    -0.246 OA
ATOM      4  S   ASG d 302      15.601  38.850  48.002  0.00  0.00     0.252 S 
ATOM      5  C6  ASG d 302      13.765  38.480  44.900  0.00  0.00     0.043 C 
ATOM      6  C2  ASG d 302      15.985  34.986  46.019  0.00  0.00     0.087 C 
ATOM      7  C1  ASG d 302      15.557  35.255  44.584  0.00  0.00     0.154 C 
ATOM      8  O5  ASG d 302      15.184  36.638  44.383  0.00  0.00    -0.349 OA
ATOM      9  C5  ASG d 302      14.096  37.050  45.243  0.00  0.00     0.090 C 
ATOM     10  O7  ASG d 302      18.433  33.891  47.068  0.00  0.00    -0.274 OA
ATOM     11  C3  ASG d 302      14.826  35.364  46.924  0.00  0.00     0.094 C 
ATOM     12  C8  ASG d 302      17.669  31.630  46.804  0.00  0.00    -0.003 C 
ATOM     13  OSA ASG d 302      14.792  38.479  49.148  0.00  0.00    -0.572 OA
ATOM     14  N   ASG d 302      16.322  33.541  46.187  0.00  0.00    -0.349 N 
ATOM     15  C7  ASG d 302      17.545  33.133  46.712  0.00  0.00     0.214 C 
ATOM     16  OSC ASG d 302      16.932  39.199  48.445  0.00  0.00    -0.572 OA
ATOM     17  O3  ASG d 302      15.238  35.175  48.229  0.00  0.00    -0.348 OA
ATOM     18  C4  ASG d 302      14.507  36.854  46.717  0.00  0.00     0.114 C 
ATOM     19  H   ASG d 302      12.835  39.472  43.471  0.00  0.00     0.209 HD
ATOM     20  H   ASG d 302      13.172  38.901  45.684  0.00  0.00     0.078 H 
ATOM     21  H   ASG d 302      14.677  39.028  44.790  0.00  0.00     0.078 H 
ATOM     22  H   ASG d 302      16.853  35.560  46.268  0.00  0.00     0.084 H 
ATOM     23  H   ASG d 302      14.709  34.635  44.381  0.00  0.00     0.132 H 
ATOM     24  H   ASG d 302      13.216  36.459  45.097  0.00  0.00     0.090 H 
ATOM     25  H   ASG d 302      13.962  34.772  46.706  0.00  0.00     0.091 H 
ATOM     26  H   ASG d 302      18.625  31.376  47.212  0.00  0.00     0.040 H 
ATOM     27  H   ASG d 302      17.574  31.204  45.827  0.00  0.00     0.040 H 
ATOM     28  H   ASG d 302      16.897  31.246  47.437  0.00  0.00     0.040 H 
ATOM     29  H   ASG d 302      15.663  32.860  45.919  0.00  0.00     0.163 HD
ATOM     30  H   ASG d 302      13.723  37.165  47.376  0.00  0.00     0.093 H 
ATOM     31  C6  BDP d 303      10.857  34.675  49.875  0.00  0.00     0.206 C 
ATOM     32  O4  BDP d 303      12.004  32.913  51.974  0.00  0.00    -0.348 OA
ATOM     33  O3  BDP d 303      14.804  32.889  52.396  0.00  0.00    -0.390 OA
ATOM     34  C3  BDP d 303      14.210  33.108  51.106  0.00  0.00     0.092 C 
ATOM     35  O6B BDP d 303      10.755  35.683  50.604  0.00  0.00    -0.646 OA
ATOM     36  C4  BDP d 303      12.833  33.767  51.261  0.00  0.00     0.103 C 
ATOM     37  C2  BDP d 303      15.095  34.045  50.308  0.00  0.00     0.110 C 
ATOM     38  O6A BDP d 303       9.995  34.121  49.154  0.00  0.00    -0.646 OA
ATOM     39  C1  BDP d 303      14.455  34.292  48.951  0.00  0.00     0.160 C 
ATOM     40  C5  BDP d 303      12.229  34.006  49.851  0.00  0.00     0.152 C 
ATOM     41  O5  BDP d 303      13.125  34.860  49.087  0.00  0.00    -0.340 OA
ATOM     42  O2  BDP d 303      16.387  33.465  50.110  0.00  0.00    -0.388 OA
ATOM     43  H   BDP d 303      15.673  32.472  52.285  0.00  0.00     0.210 HD
ATOM     44  H   BDP d 303      14.106  32.166  50.609  0.00  0.00     0.091 H 
ATOM     45  H   BDP d 303      12.925  34.699  51.779  0.00  0.00     0.092 H 
ATOM     46  H   BDP d 303      15.203  34.965  50.845  0.00  0.00     0.094 H 
ATOM     47  H   BDP d 303      14.377  33.352  48.447  0.00  0.00     0.133 H 
ATOM     48  H   BDP d 303      12.111  33.039  49.408  0.00  0.00     0.104 H 
ATOM     49  H   BDP d 303      16.297  32.631  49.623  0.00  0.00     0.210 HD
ATOM     50  C1  ASG d 306       3.920  36.692  54.216  0.00  0.00     0.151 C 
ATOM     51  C4  ASG d 306       2.808  39.301  54.957  0.00  0.00     0.089 C 
ATOM     52  C6  ASG d 306       5.191  39.888  55.624  0.00  0.00     0.043 C 
ATOM     53  S   ASG d 306       1.708  40.059  57.161  0.00  0.00     0.252 S 
ATOM     54  O4  ASG d 306       2.494  38.973  56.311  0.00  0.00    -0.249 OA
ATOM     55  OSB ASG d 306       1.463  39.531  58.490  0.00  0.00    -0.572 OA
ATOM     56  OSA ASG d 306       2.514  41.263  57.260  0.00  0.00    -0.572 OA
ATOM     57  C3  ASG d 306       1.952  38.379  54.016  0.00  0.00    -0.014 C 
ATOM     58  C7  ASG d 306       1.184  34.704  54.042  0.00  0.00     0.214 C 
ATOM     59  N   ASG d 306       1.747  35.862  53.500  0.00  0.00    -0.352 N 
ATOM     60  C8  ASG d 306       0.550  33.823  52.995  0.00  0.00    -0.003 C 
ATOM     61  C2  ASG d 306       2.440  36.867  54.366  0.00  0.00     0.062 C 
ATOM     62  O5  ASG d 306       4.640  37.639  55.041  0.00  0.00    -0.349 OA
ATOM     63  O6  ASG d 306       6.567  39.547  55.472  0.00  0.00    -0.398 OA
ATOM     64  O7  ASG d 306       1.200  34.413  55.234  0.00  0.00    -0.274 OA
ATOM     65  OSC ASG d 306       0.451  40.368  56.515  0.00  0.00    -0.572 OA
ATOM     66  C5  ASG d 306       4.324  39.030  54.728  0.00  0.00     0.088 C 
ATOM     67  H   ASG d 306       4.199  36.871  53.199  0.00  0.00     0.132 H 
ATOM     68  H   ASG d 306       2.591  40.328  54.747  0.00  0.00     0.089 H 
ATOM     69  H   ASG d 306       4.901  39.737  56.643  0.00  0.00     0.078 H 
ATOM     70  H   ASG d 306       5.060  40.914  55.348  0.00  0.00     0.078 H 
ATOM     71  H   ASG d 306       2.142  38.608  52.988  0.00  0.00     0.040 H 
ATOM     72  H   ASG d 306       0.901  38.511  54.167  0.00  0.00     0.040 H 
ATOM     73  H   ASG d 306       1.688  36.020  52.530  0.00  0.00     0.163 HD
ATOM     74  H   ASG d 306       0.658  34.279  52.033  0.00  0.00     0.040 H 
ATOM     75  H   ASG d 306      -0.489  33.698  53.216  0.00  0.00     0.040 H 
ATOM     76  H   ASG d 306       1.032  32.868  52.993  0.00  0.00     0.040 H 
ATOM     77  H   ASG d 306       2.182  36.706  55.393  0.00  0.00     0.080 H 
ATOM     78  H   ASG d 306       6.700  38.618  55.719  0.00  0.00     0.209 HD
ATOM     79  H   ASG d 306       4.522  39.258  53.701  0.00  0.00     0.090 H 
ATOM     80  C5  BDP d 305       5.601  33.584  53.726  0.00  0.00     0.152 C 
ATOM     81  O6B BDP d 305       6.335  34.611  51.746  0.00  0.00    -0.646 OA
ATOM     82  C6  BDP d 305       5.389  33.999  52.276  0.00  0.00     0.206 C 
ATOM     83  O4  BDP d 305       4.248  35.390  54.584  0.00  0.00    -0.348 OA
ATOM     84  O3  BDP d 305       5.566  35.304  57.100  0.00  0.00    -0.390 OA
ATOM     85  C2  BDP d 305       7.099  33.697  56.215  0.00  0.00     0.110 C 
ATOM     86  C1  BDP d 305       7.262  32.563  55.191  0.00  0.00     0.160 C 
ATOM     87  C4  BDP d 305       5.470  34.763  54.718  0.00  0.00     0.103 C 
ATOM     88  O6A BDP d 305       4.276  33.672  51.797  0.00  0.00    -0.646 OA
ATOM     89  C3  BDP d 305       5.686  34.242  56.151  0.00  0.00     0.092 C 
ATOM     90  O2  BDP d 305       7.396  33.179  57.514  0.00  0.00    -0.388 OA
ATOM     91  O5  BDP d 305       6.946  33.027  53.843  0.00  0.00    -0.340 OA
ATOM     92  H   BDP d 305       4.842  32.873  53.976  0.00  0.00     0.104 H 
ATOM     93  H   BDP d 305       5.705  34.955  57.995  0.00  0.00     0.210 HD
ATOM     94  H   BDP d 305       7.770  34.501  55.997  0.00  0.00     0.094 H 
ATOM     95  H   BDP d 305       6.584  31.780  55.459  0.00  0.00     0.133 H 
ATOM     96  H   BDP d 305       6.220  35.495  54.500  0.00  0.00     0.092 H 
ATOM     97  H   BDP d 305       4.954  33.497  56.383  0.00  0.00     0.091 H 
ATOM     98  H   BDP d 305       6.791  32.449  57.718  0.00  0.00     0.210 HD
ATOM     99  O6B BDP d 301      15.912  31.792  42.078  0.00  0.00    -0.646 OA
ATOM    100  C6  BDP d 301      16.910  32.312  42.623  0.00  0.00     0.206 C 
ATOM    101  O6A BDP d 301      17.598  31.908  43.586  0.00  0.00    -0.646 OA
ATOM    102  O5  BDP d 301      17.463  33.486  40.593  0.00  0.00    -0.340 OA
ATOM    103  C5  BDP d 301      17.362  33.639  42.027  0.00  0.00     0.152 C 
ATOM    104  C3  BDP d 301      16.976  36.091  41.678  0.00  0.00     0.092 C 
ATOM    105  C1  BDP d 301      17.906  34.702  39.917  0.00  0.00     0.156 C 
ATOM    106  O1  BDP d 301      18.005  34.369  38.448  0.00  0.00    -0.368 OA
ATOM    107  C4  BDP d 301      16.446  34.812  42.375  0.00  0.00     0.103 C 
ATOM    108  C2  BDP d 301      16.989  35.862  40.175  0.00  0.00     0.110 C 
ATOM    109  O2  BDP d 301      17.494  37.000  39.480  0.00  0.00    -0.388 OA
ATOM    110  O4  BDP d 301      16.594  34.972  43.740  0.00  0.00    -0.348 OA
ATOM    111  O3  BDP d 301      16.120  37.197  41.972  0.00  0.00    -0.390 OA
ATOM    112  H   BDP d 301      18.312  33.880  42.456  0.00  0.00     0.104 H 
ATOM    113  H   BDP d 301      17.963  36.304  42.032  0.00  0.00     0.091 H 
ATOM    114  H   BDP d 301      18.856  35.016  40.295  0.00  0.00     0.133 H 
ATOM    115  H   BDP d 301      17.136  34.087  38.121  0.00  0.00     0.212 HD
ATOM    116  H   BDP d 301      15.433  34.645  42.076  0.00  0.00     0.092 H 
ATOM    117  H   BDP d 301      15.993  35.678  39.831  0.00  0.00     0.094 H 
ATOM    118  H   BDP d 301      18.398  37.185  39.778  0.00  0.00     0.210 HD
ATOM    119  H   BDP d 301      15.224  37.005  41.653  0.00  0.00     0.210 HD
ATOM    120  OSC ASG d 304      11.697  30.121  57.848  0.00  0.00    -0.572 OA
ATOM    121  O3  ASG d 304       8.588  32.078  55.210  0.00  0.00    -0.348 OA
ATOM    122  C5  ASG d 304      11.722  34.167  55.360  0.00  0.00     0.090 C 
ATOM    123  C6  ASG d 304      12.823  34.422  56.360  0.00  0.00     0.043 C 
ATOM    124  O4  ASG d 304      11.274  31.936  56.211  0.00  0.00    -0.246 OA
ATOM    125  C7  ASG d 304       9.374  31.256  51.468  0.00  0.00     0.214 C 
ATOM    126  C8  ASG d 304       8.236  31.270  50.473  0.00  0.00    -0.003 C 
ATOM    127  S   ASG d 304      11.119  31.444  57.721  0.00  0.00     0.252 S 
ATOM    128  OSB ASG d 304      11.804  32.362  58.613  0.00  0.00    -0.572 OA
ATOM    129  N   ASG d 304       9.253  32.243  52.436  0.00  0.00    -0.349 N 
ATOM    130  C4  ASG d 304      10.647  33.186  55.881  0.00  0.00     0.114 C 
ATOM    131  C3  ASG d 304       9.593  32.979  54.774  0.00  0.00     0.094 C 
ATOM    132  C1  ASG d 304      11.348  33.412  53.089  0.00  0.00     0.154 C 
ATOM    133  O7  ASG d 304      10.295  30.458  51.413  0.00  0.00    -0.274 OA
ATOM    134  O6  ASG d 304      13.531  35.621  56.038  0.00  0.00    -0.398 OA
ATOM    135  O5  ASG d 304      12.330  33.643  54.141  0.00  0.00    -0.349 OA
ATOM    136  C2  ASG d 304      10.265  32.423  53.530  0.00  0.00     0.087 C 
ATOM    137  OSA ASG d 304       9.711  31.400  58.078  0.00  0.00    -0.572 OA
ATOM    138  H   ASG d 304      11.217  35.091  55.175  0.00  0.00     0.090 H 
ATOM    139  H   ASG d 304      13.506  33.599  56.350  0.00  0.00     0.078 H 
ATOM    140  H   ASG d 304      12.387  34.530  57.331  0.00  0.00     0.078 H 
ATOM    141  H   ASG d 304       7.553  32.055  50.723  0.00  0.00     0.040 H 
ATOM    142  H   ASG d 304       7.726  30.330  50.501  0.00  0.00     0.040 H 
ATOM    143  H   ASG d 304       8.624  31.436  49.489  0.00  0.00     0.040 H 
ATOM    144  H   ASG d 304       8.476  32.847  52.403  0.00  0.00     0.163 HD
ATOM    145  H   ASG d 304      10.170  33.577  56.756  0.00  0.00     0.093 H 
ATOM    146  H   ASG d 304       9.139  33.922  54.549  0.00  0.00     0.091 H 
ATOM    147  H   ASG d 304      10.867  34.341  52.863  0.00  0.00     0.132 H 
ATOM    148  H   ASG d 304      13.931  35.533  55.158  0.00  0.00     0.209 HD
ATOM    149  H   ASG d 304      10.702  31.469  53.741  0.00  0.00     0.084 H 
ENDROOT
TORSDOF 38
ENDMDL
MODEL 82
REMARK VINA RESULT:      -3.4      3.093      4.673
REMARK  0 active torsions:
REMARK  status: ('A' for Active; 'I' for Inactive)
REMARK       I    between atoms: C6_2  and  C5_74 
REMARK       I    between atoms: C1_3  and  O4_24 
REMARK       I    between atoms: O6_4  and  C6_26 
REMARK       I    between atoms: C5_5  and  C6_12 
REMARK       I    between atoms: C4_6  and  O4_22 
REMARK       I    between atoms: C6_8  and  C5_90 
REMARK       I    between atoms: C6_8  and  O6_83 
REMARK       I    between atoms: O3_11  and  C3_60 
REMARK       I    between atoms: O3_11  and  C1_29 
REMARK       I    between atoms: C5_13  and  C6_18 
REMARK       I    between atoms: O4_14  and  C4_88 
REMARK       I    between atoms: O4_14  and  S_15 
REMARK       I    between atoms: C6_16  and  C5_28 
REMARK       I    between atoms: S_17  and  O4_22 
REMARK       I    between atoms: C6_18  and  O6_66 
REMARK       I    between atoms: O4_20  and  C4_46 
REMARK       I    between atoms: O4_20  and  C1_61 
REMARK       I    between atoms: O4_21  and  C4_54 
REMARK       I    between atoms: O4_21  and  S_40 
REMARK       I    between atoms: O4_24  and  C4_35 
REMARK       I    between atoms: O3_25  and  C3_48 
REMARK       I    between atoms: C6_26  and  C5_50 
REMARK       I    between atoms: C2_27  and  O2_55 
REMARK       I    between atoms: O3_31  and  C3_37 
REMARK       I    between atoms: C2_32  and  N_72 
REMARK       I    between atoms: C7_33  and  C8_39 
REMARK       I    between atoms: C7_33  and  N_52 
REMARK       I    between atoms: C1_34  and  O4_86 
REMARK       I    between atoms: C3_36  and  O3_87 
REMARK       I    between atoms: C2_47  and  O2_85 
REMARK       I    between atoms: N_52  and  C2_71 
REMARK       I    between atoms: C3_53  and  O3_81 
REMARK       I    between atoms: C1_56  and  O3_81 
REMARK       I    between atoms: C7_57  and  C8_64 
REMARK       I    between atoms: C7_57  and  N_63 
REMARK       I    between atoms: C8_58  and  C7_73 
REMARK       I    between atoms: C1_59  and  O1_68 
REMARK       I    between atoms: N_63  and  C2_67 
REMARK       I    between atoms: C4_69  and  O4_86 
REMARK       I    between atoms: N_72  and  C7_73 
REMARK       I    between atoms: C2_77  and  O2_82 
ROOT
ATOM      1  OSB ASG d 302      16.017  39.386  45.109  0.00  0.00    -0.572 OA
ATOM      2  O6  ASG d 302      16.357  36.773  41.592  0.00  0.00    -0.398 OA
ATOM      3  O4  ASG d 302      17.162  37.295  45.815  0.00  0.00    -0.246 OA
ATOM      4  S   ASG d 302      16.382  38.613  46.280  0.00  0.00     0.252 S 
ATOM      5  C6  ASG d 302      16.390  37.151  42.965  0.00  0.00     0.043 C 
ATOM      6  C2  ASG d 302      18.297  34.712  45.932  0.00  0.00     0.087 C 
ATOM      7  C1  ASG d 302      18.592  34.569  44.446  0.00  0.00     0.154 C 
ATOM      8  O5  ASG d 302      18.151  35.724  43.696  0.00  0.00    -0.349 OA
ATOM      9  C5  ASG d 302      16.732  35.967  43.833  0.00  0.00     0.090 C 
ATOM     10  O7  ASG d 302      20.053  34.579  48.210  0.00  0.00    -0.274 OA
ATOM     11  C3  ASG d 302      16.801  34.911  46.088  0.00  0.00     0.094 C 
ATOM     12  C8  ASG d 302      19.888  32.187  48.343  0.00  0.00    -0.003 C 
ATOM     13  OSA ASG d 302      15.185  38.254  47.018  0.00  0.00    -0.572 OA
ATOM     14  N   ASG d 302      18.733  33.482  46.658  0.00  0.00    -0.349 N 
ATOM     15  C7  ASG d 302      19.588  33.546  47.755  0.00  0.00     0.214 C 
ATOM     16  OSC ASG d 302      17.249  39.403  47.125  0.00  0.00    -0.572 OA
ATOM     17  O3  ASG d 302      16.543  35.101  47.432  0.00  0.00    -0.348 OA
ATOM     18  C4  ASG d 302      16.391  36.181  45.322  0.00  0.00     0.114 C 
ATOM     19  H   ASG d 302      16.136  37.545  41.050  0.00  0.00     0.209 HD
ATOM     20  H   ASG d 302      15.430  37.529  43.249  0.00  0.00     0.078 H 
ATOM     21  H   ASG d 302      17.138  37.903  43.098  0.00  0.00     0.078 H 
ATOM     22  H   ASG d 302      18.828  35.546  46.343  0.00  0.00     0.084 H 
ATOM     23  H   ASG d 302      18.063  33.707  44.097  0.00  0.00     0.132 H 
ATOM     24  H   ASG d 302      16.144  35.134  43.509  0.00  0.00     0.090 H 
ATOM     25  H   ASG d 302      16.260  34.069  45.710  0.00  0.00     0.091 H 
ATOM     26  H   ASG d 302      20.546  32.297  49.178  0.00  0.00     0.040 H 
ATOM     27  H   ASG d 302      20.353  31.572  47.600  0.00  0.00     0.040 H 
ATOM     28  H   ASG d 302      18.977  31.728  48.665  0.00  0.00     0.040 H 
ATOM     29  H   ASG d 302      18.408  32.604  46.354  0.00  0.00     0.163 HD
ATOM     30  H   ASG d 302      15.347  36.377  45.451  0.00  0.00     0.093 H 
ATOM     31  C6  BDP d 303      12.060  33.703  47.096  0.00  0.00     0.206 C 
ATOM     32  O4  BDP d 303      12.293  32.775  49.908  0.00  0.00    -0.348 OA
ATOM     33  O3  BDP d 303      14.489  33.627  51.480  0.00  0.00    -0.390 OA
ATOM     34  C3  BDP d 303      14.578  33.417  50.061  0.00  0.00     0.092 C 
ATOM     35  O6B BDP d 303      11.456  34.761  47.366  0.00  0.00    -0.646 OA
ATOM     36  C4  BDP d 303      13.217  33.676  49.400  0.00  0.00     0.103 C 
ATOM     37  C2  BDP d 303      15.579  34.397  49.480  0.00  0.00     0.110 C 
ATOM     38  O6A BDP d 303      11.764  32.800  46.280  0.00  0.00    -0.646 OA
ATOM     39  C1  BDP d 303      15.657  34.187  47.976  0.00  0.00     0.160 C 
ATOM     40  C5  BDP d 303      13.354  33.459  47.869  0.00  0.00     0.152 C 
ATOM     41  O5  BDP d 303      14.361  34.370  47.347  0.00  0.00    -0.340 OA
ATOM     42  O2  BDP d 303      16.876  34.180  50.045  0.00  0.00    -0.388 OA
ATOM     43  H   BDP d 303      15.354  33.461  51.886  0.00  0.00     0.210 HD
ATOM     44  H   BDP d 303      14.882  32.408  49.880  0.00  0.00     0.091 H 
ATOM     45  H   BDP d 303      12.895  34.677  49.598  0.00  0.00     0.092 H 
ATOM     46  H   BDP d 303      15.262  35.394  49.704  0.00  0.00     0.094 H 
ATOM     47  H   BDP d 303      15.987  33.185  47.799  0.00  0.00     0.133 H 
ATOM     48  H   BDP d 303      13.624  32.432  47.735  0.00  0.00     0.104 H 
ATOM     49  H   BDP d 303      17.169  33.278  49.844  0.00  0.00     0.210 HD
ATOM     50  C1  ASG d 306       3.667  34.461  47.186  0.00  0.00     0.151 C 
ATOM     51  C4  ASG d 306       1.937  36.739  46.546  0.00  0.00     0.089 C 
ATOM     52  C6  ASG d 306       3.558  38.094  47.961  0.00  0.00     0.043 C 
ATOM     53  S   ASG d 306      -0.207  37.561  47.715  0.00  0.00     0.252 S 
ATOM     54  O4  ASG d 306       1.055  36.600  47.661  0.00  0.00    -0.249 OA
ATOM     55  OSB ASG d 306      -0.986  37.250  48.900  0.00  0.00    -0.572 OA
ATOM     56  OSA ASG d 306       0.244  38.940  47.782  0.00  0.00    -0.572 OA
ATOM     57  C3  ASG d 306       1.811  35.449  45.657  0.00  0.00    -0.014 C 
ATOM     58  C7  ASG d 306       1.724  31.784  46.463  0.00  0.00     0.214 C 
ATOM     59  N   ASG d 306       2.289  32.928  45.894  0.00  0.00    -0.352 N 
ATOM     60  C8  ASG d 306       1.835  30.575  45.567  0.00  0.00    -0.003 C 
ATOM     61  C2  ASG d 306       2.298  34.235  46.624  0.00  0.00     0.062 C 
ATOM     62  O5  ASG d 306       3.729  35.713  47.910  0.00  0.00    -0.349 OA
ATOM     63  O6  ASG d 306       4.866  38.135  48.529  0.00  0.00    -0.398 OA
ATOM     64  O7  ASG d 306       1.199  31.743  47.572  0.00  0.00    -0.274 OA
ATOM     65  OSC ASG d 306      -1.016  37.371  46.532  0.00  0.00    -0.572 OA
ATOM     66  C5  ASG d 306       3.390  36.871  47.086  0.00  0.00     0.088 C 
ATOM     67  H   ASG d 306       4.377  34.513  46.388  0.00  0.00     0.132 H 
ATOM     68  H   ASG d 306       1.691  37.602  45.962  0.00  0.00     0.089 H 
ATOM     69  H   ASG d 306       2.833  38.065  48.749  0.00  0.00     0.078 H 
ATOM     70  H   ASG d 306       3.418  38.968  47.359  0.00  0.00     0.078 H 
ATOM     71  H   ASG d 306       2.442  35.522  44.796  0.00  0.00     0.040 H 
ATOM     72  H   ASG d 306       0.816  35.304  45.293  0.00  0.00     0.040 H 
ATOM     73  H   ASG d 306       2.689  32.874  44.995  0.00  0.00     0.163 HD
ATOM     74  H   ASG d 306       2.327  30.850  44.657  0.00  0.00     0.040 H 
ATOM     75  H   ASG d 306       0.856  30.205  45.345  0.00  0.00     0.040 H 
ATOM     76  H   ASG d 306       2.400  29.814  46.063  0.00  0.00     0.040 H 
ATOM     77  H   ASG d 306       1.598  34.206  47.434  0.00  0.00     0.080 H 
ATOM     78  H   ASG d 306       5.005  37.347  49.077  0.00  0.00     0.209 HD
ATOM     79  H   ASG d 306       4.028  36.945  46.230  0.00  0.00     0.090 H 
ATOM     80  C5  BDP d 305       5.842  31.924  48.436  0.00  0.00     0.152 C 
ATOM     81  O6B BDP d 305       7.279  32.718  46.758  0.00  0.00    -0.646 OA
ATOM     82  C6  BDP d 305       6.305  31.976  46.987  0.00  0.00     0.206 C 
ATOM     83  O4  BDP d 305       3.974  33.401  48.035  0.00  0.00    -0.348 OA
ATOM     84  O3  BDP d 305       3.883  34.176  50.768  0.00  0.00    -0.390 OA
ATOM     85  C2  BDP d 305       5.885  32.931  51.163  0.00  0.00     0.110 C 
ATOM     86  C1  BDP d 305       6.707  31.716  50.707  0.00  0.00     0.160 C 
ATOM     87  C4  BDP d 305       5.055  33.184  48.866  0.00  0.00     0.103 C 
ATOM     88  O6A BDP d 305       5.639  31.261  46.199  0.00  0.00    -0.646 OA
ATOM     89  C3  BDP d 305       4.619  33.030  50.335  0.00  0.00     0.092 C 
ATOM     90  O2  BDP d 305       5.584  32.778  52.552  0.00  0.00    -0.388 OA
ATOM     91  O5  BDP d 305       7.025  31.805  49.284  0.00  0.00    -0.340 OA
ATOM     92  H   BDP d 305       5.181  31.088  48.538  0.00  0.00     0.104 H 
ATOM     93  H   BDP d 305       3.618  34.059  51.694  0.00  0.00     0.210 HD
ATOM     94  H   BDP d 305       6.439  33.835  51.023  0.00  0.00     0.094 H 
ATOM     95  H   BDP d 305       6.119  30.839  50.880  0.00  0.00     0.133 H 
ATOM     96  H   BDP d 305       5.688  34.043  48.782  0.00  0.00     0.092 H 
ATOM     97  H   BDP d 305       3.997  32.167  50.443  0.00  0.00     0.091 H 
ATOM     98  H   BDP d 305       5.082  31.960  52.686  0.00  0.00     0.210 HD
ATOM     99  O6B BDP d 301      20.676  30.936  43.519  0.00  0.00    -0.646 OA
ATOM    100  C6  BDP d 301      21.180  31.813  44.255  0.00  0.00     0.206 C 
ATOM    101  O6A BDP d 301      21.362  31.812  45.493  0.00  0.00    -0.646 OA
ATOM    102  O5  BDP d 301      22.463  32.683  42.412  0.00  0.00    -0.340 OA
ATOM    103  C5  BDP d 301      21.650  33.073  43.541  0.00  0.00     0.152 C 
ATOM    104  C3  BDP d 301      21.101  35.200  42.334  0.00  0.00     0.092 C 
ATOM    105  C1  BDP d 301      22.982  33.822  41.659  0.00  0.00     0.156 C 
ATOM    106  O1  BDP d 301      23.841  33.256  40.554  0.00  0.00    -0.368 OA
ATOM    107  C4  BDP d 301      20.508  33.982  43.087  0.00  0.00     0.103 C 
ATOM    108  C2  BDP d 301      21.886  34.701  41.131  0.00  0.00     0.110 C 
ATOM    109  O2  BDP d 301      22.479  35.781  40.413  0.00  0.00    -0.388 OA
ATOM    110  O4  BDP d 301      19.939  34.435  44.262  0.00  0.00    -0.348 OA
ATOM    111  O3  BDP d 301      20.047  36.053  41.880  0.00  0.00    -0.390 OA
ATOM    112  H   BDP d 301      22.215  33.651  44.241  0.00  0.00     0.104 H 
ATOM    113  H   BDP d 301      21.739  35.749  42.995  0.00  0.00     0.091 H 
ATOM    114  H   BDP d 301      23.561  34.459  42.295  0.00  0.00     0.133 H 
ATOM    115  H   BDP d 301      23.302  32.682  39.988  0.00  0.00     0.212 HD
ATOM    116  H   BDP d 301      19.813  33.480  42.447  0.00  0.00     0.092 H 
ATOM    117  H   BDP d 301      21.230  34.179  40.466  0.00  0.00     0.094 H 
ATOM    118  H   BDP d 301      23.078  36.268  40.999  0.00  0.00     0.210 HD
ATOM    119  H   BDP d 301      19.466  35.557  41.281  0.00  0.00     0.210 HD
ATOM    120  OSC ASG d 304       9.591  31.189  55.616  0.00  0.00    -0.572 OA
ATOM    121  O3  ASG d 304       7.911  31.640  51.441  0.00  0.00    -0.348 OA
ATOM    122  C5  ASG d 304      10.191  34.521  52.285  0.00  0.00     0.090 C 
ATOM    123  C6  ASG d 304      10.603  35.265  53.532  0.00  0.00     0.043 C 
ATOM    124  O4  ASG d 304       9.744  32.461  53.491  0.00  0.00    -0.246 OA
ATOM    125  C7  ASG d 304      10.551  30.375  48.848  0.00  0.00     0.214 C 
ATOM    126  C8  ASG d 304      10.063  29.875  47.508  0.00  0.00    -0.003 C 
ATOM    127  S   ASG d 304       8.948  32.243  54.858  0.00  0.00     0.252 S 
ATOM    128  OSB ASG d 304       8.951  33.471  55.633  0.00  0.00    -0.572 OA
ATOM    129  N   ASG d 304       9.816  31.453  49.319  0.00  0.00    -0.349 N 
ATOM    130  C4  ASG d 304       9.170  33.394  52.562  0.00  0.00     0.114 C 
ATOM    131  C3  ASG d 304       8.843  32.689  51.229  0.00  0.00     0.094 C 
ATOM    132  C1  ASG d 304      11.105  33.271  50.422  0.00  0.00     0.154 C 
ATOM    133  O7  ASG d 304      11.494  29.875  49.440  0.00  0.00    -0.274 OA
ATOM    134  O6  ASG d 304      11.177  36.530  53.199  0.00  0.00    -0.398 OA
ATOM    135  O5  ASG d 304      11.393  33.968  51.670  0.00  0.00    -0.349 OA
ATOM    136  C2  ASG d 304      10.118  32.118  50.630  0.00  0.00     0.087 C 
ATOM    137  OSA ASG d 304       7.573  31.871  54.568  0.00  0.00    -0.572 OA
ATOM    138  H   ASG d 304       9.702  35.211  51.630  0.00  0.00     0.090 H 
ATOM    139  H   ASG d 304      11.324  34.683  54.066  0.00  0.00     0.078 H 
ATOM    140  H   ASG d 304       9.736  35.429  54.136  0.00  0.00     0.078 H 
ATOM    141  H   ASG d 304       9.229  30.466  47.188  0.00  0.00     0.040 H 
ATOM    142  H   ASG d 304       9.761  28.853  47.597  0.00  0.00     0.040 H 
ATOM    143  H   ASG d 304      10.851  29.953  46.789  0.00  0.00     0.040 H 
ATOM    144  H   ASG d 304       9.071  31.794  48.773  0.00  0.00     0.163 HD
ATOM    145  H   ASG d 304       8.270  33.794  52.981  0.00  0.00     0.093 H 
ATOM    146  H   ASG d 304       8.415  33.403  50.557  0.00  0.00     0.091 H 
ATOM    147  H   ASG d 304      10.656  33.964  49.741  0.00  0.00     0.132 H 
ATOM    148  H   ASG d 304      11.966  36.393  52.650  0.00  0.00     0.209 HD
ATOM    149  H   ASG d 304      10.540  31.387  51.288  0.00  0.00     0.084 H 
ENDROOT
TORSDOF 38
ENDMDL
MODEL 83
REMARK VINA RESULT:      -3.3      7.581     13.208
REMARK  0 active torsions:
REMARK  status: ('A' for Active; 'I' for Inactive)
REMARK       I    between atoms: C6_2  and  C5_74 
REMARK       I    between atoms: C1_3  and  O4_24 
REMARK       I    between atoms: O6_4  and  C6_26 
REMARK       I    between atoms: C5_5  and  C6_12 
REMARK       I    between atoms: C4_6  and  O4_22 
REMARK       I    between atoms: C6_8  and  C5_90 
REMARK       I    between atoms: C6_8  and  O6_83 
REMARK       I    between atoms: O3_11  and  C3_60 
REMARK       I    between atoms: O3_11  and  C1_29 
REMARK       I    between atoms: C5_13  and  C6_18 
REMARK       I    between atoms: O4_14  and  C4_88 
REMARK       I    between atoms: O4_14  and  S_15 
REMARK       I    between atoms: C6_16  and  C5_28 
REMARK       I    between atoms: S_17  and  O4_22 
REMARK       I    between atoms: C6_18  and  O6_66 
REMARK       I    between atoms: O4_20  and  C4_46 
REMARK       I    between atoms: O4_20  and  C1_61 
REMARK       I    between atoms: O4_21  and  C4_54 
REMARK       I    between atoms: O4_21  and  S_40 
REMARK       I    between atoms: O4_24  and  C4_35 
REMARK       I    between atoms: O3_25  and  C3_48 
REMARK       I    between atoms: C6_26  and  C5_50 
REMARK       I    between atoms: C2_27  and  O2_55 
REMARK       I    between atoms: O3_31  and  C3_37 
REMARK       I    between atoms: C2_32  and  N_72 
REMARK       I    between atoms: C7_33  and  C8_39 
REMARK       I    between atoms: C7_33  and  N_52 
REMARK       I    between atoms: C1_34  and  O4_86 
REMARK       I    between atoms: C3_36  and  O3_87 
REMARK       I    between atoms: C2_47  and  O2_85 
REMARK       I    between atoms: N_52  and  C2_71 
REMARK       I    between atoms: C3_53  and  O3_81 
REMARK       I    between atoms: C1_56  and  O3_81 
REMARK       I    between atoms: C7_57  and  C8_64 
REMARK       I    between atoms: C7_57  and  N_63 
REMARK       I    between atoms: C8_58  and  C7_73 
REMARK       I    between atoms: C1_59  and  O1_68 
REMARK       I    between atoms: N_63  and  C2_67 
REMARK       I    between atoms: C4_69  and  O4_86 
REMARK       I    between atoms: N_72  and  C7_73 
REMARK       I    between atoms: C2_77  and  O2_82 
ROOT
ATOM      1  OSB ASG d 302       5.625  39.028  41.025  0.00  0.00    -0.572 OA
ATOM      2  O6  ASG d 302       2.360  36.378  42.302  0.00  0.00    -0.398 OA
ATOM      3  O4  ASG d 302       5.877  36.865  39.823  0.00  0.00    -0.246 OA
ATOM      4  S   ASG d 302       6.574  38.238  40.264  0.00  0.00     0.252 S 
ATOM      5  C6  ASG d 302       3.589  36.760  41.692  0.00  0.00     0.043 C 
ATOM      6  C2  ASG d 302       5.610  34.211  38.898  0.00  0.00     0.087 C 
ATOM      7  C1  ASG d 302       4.137  34.039  39.242  0.00  0.00     0.154 C 
ATOM      8  O5  ASG d 302       3.591  35.218  39.877  0.00  0.00    -0.349 OA
ATOM      9  C5  ASG d 302       4.283  35.560  41.101  0.00  0.00     0.090 C 
ATOM     10  O7  ASG d 302       6.986  33.968  36.381  0.00  0.00    -0.274 OA
ATOM     11  C3  ASG d 302       6.351  34.515  40.188  0.00  0.00     0.094 C 
ATOM     12  C8  ASG d 302       7.253  31.594  36.625  0.00  0.00    -0.003 C 
ATOM     13  OSA ASG d 302       7.744  37.967  41.078  0.00  0.00    -0.572 OA
ATOM     14  N   ASG d 302       6.138  32.958  38.282  0.00  0.00    -0.349 N 
ATOM     15  C7  ASG d 302       6.792  32.968  37.053  0.00  0.00     0.214 C 
ATOM     16  OSC ASG d 302       6.968  38.970  39.082  0.00  0.00    -0.572 OA
ATOM     17  O3  ASG d 302       7.678  34.729  39.866  0.00  0.00    -0.348 OA
ATOM     18  C4  ASG d 302       5.775  35.806  40.793  0.00  0.00     0.114 C 
ATOM     19  H   ASG d 302       1.928  37.161  42.677  0.00  0.00     0.209 HD
ATOM     20  H   ASG d 302       4.224  37.206  42.429  0.00  0.00     0.078 H 
ATOM     21  H   ASG d 302       3.383  37.460  40.909  0.00  0.00     0.078 H 
ATOM     22  H   ASG d 302       5.744  35.008  38.196  0.00  0.00     0.084 H 
ATOM     23  H   ASG d 302       4.061  33.214  39.918  0.00  0.00     0.132 H 
ATOM     24  H   ASG d 302       4.253  34.768  41.820  0.00  0.00     0.090 H 
ATOM     25  H   ASG d 302       6.252  33.710  40.886  0.00  0.00     0.091 H 
ATOM     26  H   ASG d 302       7.747  31.663  35.679  0.00  0.00     0.040 H 
ATOM     27  H   ASG d 302       6.407  30.945  36.539  0.00  0.00     0.040 H 
ATOM     28  H   ASG d 302       7.931  31.202  37.353  0.00  0.00     0.040 H 
ATOM     29  H   ASG d 302       6.020  32.103  38.756  0.00  0.00     0.163 HD
ATOM     30  H   ASG d 302       6.308  36.075  41.681  0.00  0.00     0.093 H 
ATOM     31  C6  BDP d 303       9.230  33.645  44.175  0.00  0.00     0.206 C 
ATOM     32  O4  BDP d 303      11.737  32.718  42.878  0.00  0.00    -0.348 OA
ATOM     33  O3  BDP d 303      12.257  33.423  40.186  0.00  0.00    -0.390 OA
ATOM     34  C3  BDP d 303      10.931  33.200  40.693  0.00  0.00     0.092 C 
ATOM     35  O6B BDP d 303       9.687  34.743  44.552  0.00  0.00    -0.646 OA
ATOM     36  C4  BDP d 303      10.869  33.550  42.187  0.00  0.00     0.103 C 
ATOM     37  C2  BDP d 303       9.962  34.105  39.957  0.00  0.00     0.110 C 
ATOM     38  O6A BDP d 303       8.634  32.760  44.832  0.00  0.00    -0.646 OA
ATOM     39  C1  BDP d 303       8.563  33.882  40.508  0.00  0.00     0.160 C 
ATOM     40  C5  BDP d 303       9.421  33.315  42.697  0.00  0.00     0.152 C 
ATOM     41  O5  BDP d 303       8.506  34.151  41.935  0.00  0.00    -0.340 OA
ATOM     42  O2  BDP d 303       9.961  33.801  38.558  0.00  0.00    -0.388 OA
ATOM     43  H   BDP d 303      12.284  33.199  39.243  0.00  0.00     0.210 HD
ATOM     44  H   BDP d 303      10.675  32.171  40.552  0.00  0.00     0.091 H 
ATOM     45  H   BDP d 303      11.146  34.572  42.339  0.00  0.00     0.092 H 
ATOM     46  H   BDP d 303      10.262  35.123  40.093  0.00  0.00     0.094 H 
ATOM     47  H   BDP d 303       8.301  32.859  40.341  0.00  0.00     0.133 H 
ATOM     48  H   BDP d 303       9.224  32.271  42.569  0.00  0.00     0.104 H 
ATOM     49  H   BDP d 303       9.689  32.879  38.427  0.00  0.00     0.210 HD
ATOM     50  C1  ASG d 306      12.683  34.986  51.745  0.00  0.00     0.151 C 
ATOM     51  C4  ASG d 306      12.722  37.375  53.444  0.00  0.00     0.089 C 
ATOM     52  C6  ASG d 306      13.314  38.622  51.308  0.00  0.00     0.043 C 
ATOM     53  S   ASG d 306      14.631  38.351  54.873  0.00  0.00     0.252 S 
ATOM     54  O4  ASG d 306      14.102  37.304  53.803  0.00  0.00    -0.249 OA
ATOM     55  OSB ASG d 306      16.039  38.101  55.122  0.00  0.00    -0.572 OA
ATOM     56  OSA ASG d 306      14.463  39.695  54.350  0.00  0.00    -0.572 OA
ATOM     57  C3  ASG d 306      12.003  36.093  53.998  0.00  0.00    -0.014 C 
ATOM     58  C7  ASG d 306      12.896  32.446  53.975  0.00  0.00     0.214 C 
ATOM     59  N   ASG d 306      12.110  33.545  53.621  0.00  0.00    -0.352 N 
ATOM     60  C8  ASG d 306      12.073  31.228  54.312  0.00  0.00    -0.003 C 
ATOM     61  C2  ASG d 306      12.730  34.852  53.237  0.00  0.00     0.062 C 
ATOM     62  O5  ASG d 306      13.278  36.234  51.319  0.00  0.00    -0.349 OA
ATOM     63  O6  ASG d 306      13.303  38.574  49.882  0.00  0.00    -0.398 OA
ATOM     64  O7  ASG d 306      14.123  32.448  54.007  0.00  0.00    -0.274 OA
ATOM     65  OSC ASG d 306      13.883  38.211  56.103  0.00  0.00    -0.572 OA
ATOM     66  C5  ASG d 306      12.624  37.408  51.890  0.00  0.00     0.088 C 
ATOM     67  H   ASG d 306      11.664  34.984  51.419  0.00  0.00     0.132 H 
ATOM     68  H   ASG d 306      12.259  38.250  53.851  0.00  0.00     0.089 H 
ATOM     69  H   ASG d 306      14.328  38.647  51.650  0.00  0.00     0.078 H 
ATOM     70  H   ASG d 306      12.792  39.500  51.626  0.00  0.00     0.078 H 
ATOM     71  H   ASG d 306      10.959  36.116  53.767  0.00  0.00     0.040 H 
ATOM     72  H   ASG d 306      12.078  36.015  55.062  0.00  0.00     0.040 H 
ATOM     73  H   ASG d 306      11.129  33.459  53.624  0.00  0.00     0.163 HD
ATOM     74  H   ASG d 306      11.033  31.463  54.216  0.00  0.00     0.040 H 
ATOM     75  H   ASG d 306      12.279  30.926  55.318  0.00  0.00     0.040 H 
ATOM     76  H   ASG d 306      12.323  30.432  53.642  0.00  0.00     0.040 H 
ATOM     77  H   ASG d 306      13.754  34.877  53.547  0.00  0.00     0.080 H 
ATOM     78  H   ASG d 306      13.774  37.781  49.581  0.00  0.00     0.209 HD
ATOM     79  H   ASG d 306      11.580  37.433  51.652  0.00  0.00     0.090 H 
ATOM     80  C5  BDP d 305      13.029  32.310  49.411  0.00  0.00     0.152 C 
ATOM     81  O6B BDP d 305      10.888  32.994  48.733  0.00  0.00    -0.646 OA
ATOM     82  C6  BDP d 305      11.516  32.322  49.573  0.00  0.00     0.206 C 
ATOM     83  O4  BDP d 305      13.369  33.912  51.186  0.00  0.00    -0.348 OA
ATOM     84  O3  BDP d 305      15.879  34.705  50.113  0.00  0.00    -0.390 OA
ATOM     85  C2  BDP d 305      15.470  33.326  48.203  0.00  0.00     0.110 C 
ATOM     86  C1  BDP d 305      14.761  32.055  47.713  0.00  0.00     0.160 C 
ATOM     87  C4  BDP d 305      13.698  33.624  49.877  0.00  0.00     0.103 C 
ATOM     88  O6A BDP d 305      11.089  31.651  50.545  0.00  0.00    -0.646 OA
ATOM     89  C3  BDP d 305      15.223  33.509  49.688  0.00  0.00     0.092 C 
ATOM     90  O2  BDP d 305      16.867  33.202  47.923  0.00  0.00    -0.388 OA
ATOM     91  O5  BDP d 305      13.330  32.113  47.996  0.00  0.00    -0.340 OA
ATOM     92  H   BDP d 305      13.417  31.523  50.023  0.00  0.00     0.104 H 
ATOM     93  H   BDP d 305      16.836  34.612  49.986  0.00  0.00     0.210 HD
ATOM     94  H   BDP d 305      15.088  34.189  47.699  0.00  0.00     0.094 H 
ATOM     95  H   BDP d 305      15.186  31.222  48.233  0.00  0.00     0.133 H 
ATOM     96  H   BDP d 305      13.337  34.436  49.281  0.00  0.00     0.092 H 
ATOM     97  H   BDP d 305      15.602  32.692  50.264  0.00  0.00     0.091 H 
ATOM     98  H   BDP d 305      17.220  32.421  48.377  0.00  0.00     0.210 HD
ATOM     99  O6B BDP d 301       2.568  30.266  37.941  0.00  0.00    -0.646 OA
ATOM    100  C6  BDP d 301       3.007  31.109  37.128  0.00  0.00     0.206 C 
ATOM    101  O6A BDP d 301       4.065  31.102  36.461  0.00  0.00    -0.646 OA
ATOM    102  O5  BDP d 301       0.774  31.878  36.653  0.00  0.00    -0.340 OA
ATOM    103  C5  BDP d 301       2.123  32.330  36.913  0.00  0.00     0.152 C 
ATOM    104  C3  BDP d 301       1.172  34.483  37.772  0.00  0.00     0.092 C 
ATOM    105  C1  BDP d 301      -0.161  32.974  36.415  0.00  0.00     0.156 C 
ATOM    106  O1  BDP d 301      -1.500  32.344  36.116  0.00  0.00    -0.368 OA
ATOM    107  C4  BDP d 301       2.139  33.314  38.082  0.00  0.00     0.103 C 
ATOM    108  C2  BDP d 301      -0.229  33.924  37.575  0.00  0.00     0.110 C 
ATOM    109  O2  BDP d 301      -1.161  34.956  37.260  0.00  0.00    -0.388 OA
ATOM    110  O4  BDP d 301       3.428  33.811  38.096  0.00  0.00    -0.348 OA
ATOM    111  O3  BDP d 301       1.154  35.404  38.865  0.00  0.00    -0.390 OA
ATOM    112  H   BDP d 301       2.515  32.871  36.077  0.00  0.00     0.104 H 
ATOM    113  H   BDP d 301       1.499  34.989  36.888  0.00  0.00     0.091 H 
ATOM    114  H   BDP d 301       0.165  33.573  35.591  0.00  0.00     0.133 H 
ATOM    115  H   BDP d 301      -1.780  31.805  36.872  0.00  0.00     0.212 HD
ATOM    116  H   BDP d 301       1.852  32.858  39.006  0.00  0.00     0.092 H 
ATOM    117  H   BDP d 301      -0.555  33.446  38.475  0.00  0.00     0.094 H 
ATOM    118  H   BDP d 301      -0.884  35.404  36.445  0.00  0.00     0.210 HD
ATOM    119  H   BDP d 301       0.858  34.948  39.668  0.00  0.00     0.210 HD
ATOM    120  OSC ASG d 304      18.099  31.354  43.124  0.00  0.00    -0.572 OA
ATOM    121  O3  ASG d 304      14.948  31.899  46.322  0.00  0.00    -0.348 OA
ATOM    122  C5  ASG d 304      14.701  34.619  43.723  0.00  0.00     0.090 C 
ATOM    123  C6  ASG d 304      15.650  35.339  42.796  0.00  0.00     0.043 C 
ATOM    124  O4  ASG d 304      16.053  32.601  43.769  0.00  0.00    -0.246 OA
ATOM    125  C7  ASG d 304      11.552  30.439  45.045  0.00  0.00     0.214 C 
ATOM    126  C8  ASG d 304      10.541  29.967  46.065  0.00  0.00    -0.003 C 
ATOM    127  S   ASG d 304      17.631  32.447  43.953  0.00  0.00     0.252 S 
ATOM    128  OSB ASG d 304      18.298  33.676  43.560  0.00  0.00    -0.572 OA
ATOM    129  N   ASG d 304      12.244  31.568  45.458  0.00  0.00    -0.349 N 
ATOM    130  C4  ASG d 304      15.405  33.567  44.612  0.00  0.00     0.114 C 
ATOM    131  C3  ASG d 304      14.343  32.879  45.494  0.00  0.00     0.094 C 
ATOM    132  C1  ASG d 304      12.670  33.298  43.723  0.00  0.00     0.154 C 
ATOM    133  O7  ASG d 304      11.728  29.878  43.975  0.00  0.00    -0.274 OA
ATOM    134  O6  ASG d 304      15.072  36.559  42.330  0.00  0.00    -0.398 OA
ATOM    135  O5  ASG d 304      13.671  33.980  42.911  0.00  0.00    -0.349 OA
ATOM    136  C2  ASG d 304      13.299  32.218  44.609  0.00  0.00     0.087 C 
ATOM    137  OSA ASG d 304      17.934  32.170  45.347  0.00  0.00    -0.572 OA
ATOM    138  H   ASG d 304      14.278  35.338  44.393  0.00  0.00     0.090 H 
ATOM    139  H   ASG d 304      15.866  34.711  41.958  0.00  0.00     0.078 H 
ATOM    140  H   ASG d 304      16.548  35.566  43.331  0.00  0.00     0.078 H 
ATOM    141  H   ASG d 304      10.567  30.613  46.918  0.00  0.00     0.040 H 
ATOM    142  H   ASG d 304      10.779  28.969  46.367  0.00  0.00     0.040 H 
ATOM    143  H   ASG d 304       9.562  29.986  45.633  0.00  0.00     0.040 H 
ATOM    144  H   ASG d 304      12.036  31.957  46.338  0.00  0.00     0.163 HD
ATOM    145  H   ASG d 304      16.139  34.031  45.237  0.00  0.00     0.093 H 
ATOM    146  H   ASG d 304      13.878  33.618  46.113  0.00  0.00     0.091 H 
ATOM    147  H   ASG d 304      12.207  34.017  44.366  0.00  0.00     0.132 H 
ATOM    148  H   ASG d 304      14.255  36.365  41.842  0.00  0.00     0.209 HD
ATOM    149  H   ASG d 304      13.753  31.463  44.003  0.00  0.00     0.084 H 
ENDROOT
TORSDOF 38
ENDMDL
