MODEL 1
REMARK VINA RESULT:     -22.2      0.000      0.000
REMARK  0 active torsions:
REMARK  status: ('A' for Active; 'I' for Inactive)
REMARK       I    between atoms: C4_1  and  O4_23 
REMARK       I    between atoms: C2_2  and  N_37 
REMARK       I    between atoms: C1_3  and  O1_51 
REMARK       I    between atoms: C1_4  and  O1_30 
REMARK       I    between atoms: O6_7  and  C6_20 
REMARK       I    between atoms: C6_8  and  C5_39 
REMARK       I    between atoms: C6_8  and  O6_14 
REMARK       I    between atoms: C1_10  and  O3_44 
REMARK       I    between atoms: C3_11  and  O3_54 
REMARK       I    between atoms: O3_12  and  C3_15 
REMARK       I    between atoms: C5_13  and  C6_20 
REMARK       I    between atoms: C5_17  and  C6_52 
REMARK       I    between atoms: C4_18  and  O4_29 
REMARK       I    between atoms: C3_22  and  O3_46 
REMARK       I    between atoms: O4_23  and  S_28 
REMARK       I    between atoms: C2_24  and  O2_38 
REMARK       I    between atoms: C7_27  and  C8_31 
REMARK       I    between atoms: C7_27  and  N_56 
REMARK       I    between atoms: O4_29  and  S_45 
REMARK       I    between atoms: O1_30  and  C4_35 
REMARK       I    between atoms: C6_32  and  C5_42 
REMARK       I    between atoms: C2_33  and  O2_48 
REMARK       I    between atoms: C8_34  and  C7_58 
REMARK       I    between atoms: C2_36  and  N_56 
REMARK       I    between atoms: N_37  and  C7_58 
REMARK       I    between atoms: O3_44  and  C3_57 
REMARK       I    between atoms: O3_46  and  C1_59 
ROOT
ATOM      1  C4  ASG d 812       3.807  47.546  75.464  0.00  0.00     0.114 C 
ATOM      2  C1  ASG d 812       6.523  47.989  76.333  0.00  0.00     0.151 C 
ATOM      3  O5  ASG d 812       5.741  48.975  75.689  0.00  0.00    -0.349 OA
ATOM      4  C6  ASG d 812       4.390  49.214  73.621  0.00  0.00     0.043 C 
ATOM      5  OSC ASG d 812       2.491  50.811  75.619  0.00  0.00    -0.572 OA
ATOM      6  O6  ASG d 812       5.431  49.817  72.856  0.00  0.00    -0.398 OA
ATOM      7  C3  ASG d 812       4.493  46.512  76.320  0.00  0.00     0.094 C 
ATOM      8  O4  ASG d 812       3.075  48.358  76.386  0.00  0.00    -0.246 OA
ATOM      9  O7  ASG d 812       6.633  47.349  79.721  0.00  0.00    -0.274 OA
ATOM     10  OSA ASG d 812       1.165  48.906  74.811  0.00  0.00    -0.572 OA
ATOM     11  C7  ASG d 812       6.596  46.239  79.178  0.00  0.00     0.214 C 
ATOM     12  S   ASG d 812       1.885  49.377  75.958  0.00  0.00     0.252 S 
ATOM     13  C8  ASG d 812       6.981  44.935  79.841  0.00  0.00    -0.003 C 
ATOM     14  C2  ASG d 812       5.561  47.155  77.179  0.00  0.00     0.087 C 
ATOM     15  C5  ASG d 812       4.913  48.303  74.713  0.00  0.00     0.090 C 
ATOM     16  OSB ASG d 812       0.975  49.508  77.051  0.00  0.00    -0.572 OA
ATOM     17  O3  ASG d 812       3.612  45.937  77.274  0.00  0.00    -0.348 OA
ATOM     18  O1  ASG d 812       7.469  48.641  77.168  0.00  0.00    -0.369 OA
ATOM     19  N   ASG d 812       6.226  46.103  77.899  0.00  0.00    -0.349 N 
ATOM     20  H   ASG d 812       3.131  47.164  74.728  0.00  0.00     0.093 H 
ATOM     21  H   ASG d 812       7.047  47.369  75.636  0.00  0.00     0.132 H 
ATOM     22  H   ASG d 812       3.806  49.989  74.073  0.00  0.00     0.078 H 
ATOM     23  H   ASG d 812       3.807  48.614  72.954  0.00  0.00     0.078 H 
ATOM     24  H   ASG d 812       5.979  50.370  73.435  0.00  0.00     0.209 HD
ATOM     25  H   ASG d 812       4.874  45.787  75.632  0.00  0.00     0.091 H 
ATOM     26  H   ASG d 812       7.264  45.121  80.856  0.00  0.00     0.040 H 
ATOM     27  H   ASG d 812       7.805  44.498  79.316  0.00  0.00     0.040 H 
ATOM     28  H   ASG d 812       6.148  44.265  79.819  0.00  0.00     0.040 H 
ATOM     29  H   ASG d 812       5.127  47.841  77.876  0.00  0.00     0.084 H 
ATOM     30  H   ASG d 812       5.515  47.602  74.172  0.00  0.00     0.090 H 
ATOM     31  H   ASG d 812       7.004  49.206  77.805  0.00  0.00     0.212 HD
ATOM     32  H   ASG d 812       6.416  45.255  77.436  0.00  0.00     0.163 HD
ATOM     33  C2  ASG d 810      -0.781  39.676  75.633  0.00  0.00     0.087 C 
ATOM     34  C1  ASG d 810      -0.280  40.657  76.708  0.00  0.00     0.154 C 
ATOM     35  O6  ASG d 810       1.601  39.267  79.732  0.00  0.00    -0.398 OA
ATOM     36  C5  ASG d 810      -0.083  38.836  78.281  0.00  0.00     0.090 C 
ATOM     37  O7  ASG d 810      -0.512  39.413  72.855  0.00  0.00    -0.274 OA
ATOM     38  C4  ASG d 810      -0.736  37.855  77.288  0.00  0.00     0.114 C 
ATOM     39  C6  ASG d 810       0.932  38.154  79.186  0.00  0.00     0.043 C 
ATOM     40  O4  ASG d 810       0.225  37.148  76.484  0.00  0.00    -0.246 OA
ATOM     41  O1  ASG d 810       0.546  41.639  76.089  0.00  0.00    -0.348 OA
ATOM     42  C8  ASG d 810      -2.651  40.358  72.450  0.00  0.00    -0.003 C 
ATOM     43  N   ASG d 810      -1.635  40.253  74.620  0.00  0.00    -0.349 N 
ATOM     44  OSC ASG d 810       1.734  35.139  75.986  0.00  0.00    -0.572 OA
ATOM     45  O3  ASG d 810      -2.144  37.680  75.328  0.00  0.00    -0.348 OA
ATOM     46  S   ASG d 810       0.305  35.518  76.587  0.00  0.00     0.252 S 
ATOM     47  O5  ASG d 810       0.575  39.922  77.595  0.00  0.00    -0.349 OA
ATOM     48  OSB ASG d 810      -0.780  34.939  75.805  0.00  0.00    -0.572 OA
ATOM     49  C3  ASG d 810      -1.614  38.598  76.308  0.00  0.00     0.094 C 
ATOM     50  C7  ASG d 810      -1.502  39.972  73.318  0.00  0.00     0.214 C 
ATOM     51  OSA ASG d 810       0.276  35.167  78.003  0.00  0.00    -0.572 OA
ATOM     52  H   ASG d 810       0.105  39.319  75.152  0.00  0.00     0.084 H 
ATOM     53  H   ASG d 810      -1.110  41.107  77.210  0.00  0.00     0.132 H 
ATOM     54  H   ASG d 810       2.291  38.962  80.342  0.00  0.00     0.209 HD
ATOM     55  H   ASG d 810      -0.882  39.216  78.881  0.00  0.00     0.090 H 
ATOM     56  H   ASG d 810      -1.287  37.168  77.895  0.00  0.00     0.093 H 
ATOM     57  H   ASG d 810       0.451  37.573  79.946  0.00  0.00     0.078 H 
ATOM     58  H   ASG d 810       1.572  37.459  78.685  0.00  0.00     0.078 H 
ATOM     59  H   ASG d 810      -2.439  40.089  71.436  0.00  0.00     0.040 H 
ATOM     60  H   ASG d 810      -2.806  41.415  72.514  0.00  0.00     0.040 H 
ATOM     61  H   ASG d 810      -3.532  39.847  72.778  0.00  0.00     0.040 H 
ATOM     62  H   ASG d 810      -2.343  40.878  74.898  0.00  0.00     0.163 HD
ATOM     63  H   ASG d 810      -2.437  39.051  76.820  0.00  0.00     0.091 H 
ATOM     64  O6A GAD d 809      -7.347  37.862  77.425  0.00  0.00    -0.642 OA
ATOM     65  C1  GAD d 809      -3.415  37.627  74.922  0.00  0.00     0.165 C 
ATOM     66  C3  GAD d 809      -5.348  36.655  73.653  0.00  0.00     0.084 C 
ATOM     67  C5  GAD d 809      -5.446  37.309  76.137  0.00  0.00     0.147 C 
ATOM     68  O6B GAD d 809      -5.407  37.713  78.526  0.00  0.00    -0.642 OA
ATOM     69  C2  GAD d 809      -3.823  36.702  73.748  0.00  0.00     0.111 C 
ATOM     70  C4  GAD d 809      -6.051  37.159  74.944  0.00  0.00    -0.034 C 
ATOM     71  O2  GAD d 809      -3.237  37.035  72.451  0.00  0.00    -0.388 OA
ATOM     72  C6  GAD d 809      -6.130  37.645  77.472  0.00  0.00     0.233 C 
ATOM     73  O3  GAD d 809      -5.801  35.333  73.257  0.00  0.00    -0.389 OA
ATOM     74  O5  GAD d 809      -4.017  37.213  76.161  0.00  0.00    -0.311 OA
ATOM     75  H   GAD d 809      -3.712  38.552  74.475  0.00  0.00     0.134 H 
ATOM     76  H   GAD d 809      -5.636  37.342  72.885  0.00  0.00     0.093 H 
ATOM     77  H   GAD d 809      -3.418  35.739  73.981  0.00  0.00     0.095 H 
ATOM     78  H   GAD d 809      -7.053  37.395  74.882  0.00  0.00     0.085 H 
ATOM     79  H   GAD d 809      -3.557  37.905  72.166  0.00  0.00     0.210 HD
ATOM     80  H   GAD d 809      -5.551  34.689  73.938  0.00  0.00     0.210 HD
ATOM     81  O3  GCT d 811       2.273  41.675  78.933  0.00  0.00    -0.390 OA
ATOM     82  C3  GCT d 811       2.448  42.490  77.791  0.00  0.00     0.092 C 
ATOM     83  O5  GCT d 811       2.489  44.397  75.877  0.00  0.00    -0.340 OA
ATOM     84  C2  GCT d 811       3.118  43.789  78.183  0.00  0.00     0.110 C 
ATOM     85  C6  GCT d 811       0.204  45.156  76.448  0.00  0.00     0.206 C 
ATOM     86  C4  GCT d 811       1.078  42.901  77.245  0.00  0.00     0.103 C 
ATOM     87  O2  GCT d 811       4.331  43.541  78.831  0.00  0.00    -0.388 OA
ATOM     88  O6A GCT d 811       0.453  46.321  75.992  0.00  0.00    -0.646 OA
ATOM     89  C5  GCT d 811       1.123  43.972  76.153  0.00  0.00     0.152 C 
ATOM     90  O6B GCT d 811      -0.823  44.928  77.146  0.00  0.00    -0.646 OA
ATOM     91  C1  GCT d 811       3.450  44.573  76.925  0.00  0.00     0.160 C 
ATOM     92  H   GCT d 811       3.140  41.414  79.280  0.00  0.00     0.210 HD
ATOM     93  H   GCT d 811       3.026  41.939  77.079  0.00  0.00     0.091 H 
ATOM     94  H   GCT d 811       2.453  44.327  78.826  0.00  0.00     0.094 H 
ATOM     95  H   GCT d 811       0.524  43.140  78.128  0.00  0.00     0.092 H 
ATOM     96  H   GCT d 811       4.922  43.055  78.235  0.00  0.00     0.210 HD
ATOM     97  H   GCT d 811       0.743  43.517  75.262  0.00  0.00     0.104 H 
ATOM     98  H   GCT d 811       4.365  44.192  76.521  0.00  0.00     0.133 H 
ENDROOT
TORSDOF 25
ENDMDL
