REMARK  0 active torsions:
REMARK  status: ('A' for Active; 'I' for Inactive)
REMARK       I    between atoms: C4_1  and  O4_23 
REMARK       I    between atoms: C2_2  and  N_37 
REMARK       I    between atoms: C1_3  and  O1_51 
REMARK       I    between atoms: C1_4  and  O1_30 
REMARK       I    between atoms: O6_7  and  C6_20 
REMARK       I    between atoms: C6_8  and  C5_39 
REMARK       I    between atoms: C6_8  and  O6_14 
REMARK       I    between atoms: C1_10  and  O3_44 
REMARK       I    between atoms: C3_11  and  O3_54 
REMARK       I    between atoms: O3_12  and  C3_15 
REMARK       I    between atoms: C5_13  and  C6_20 
REMARK       I    between atoms: C5_17  and  C6_52 
REMARK       I    between atoms: C4_18  and  O4_29 
REMARK       I    between atoms: C3_22  and  O3_46 
REMARK       I    between atoms: O4_23  and  S_28 
REMARK       I    between atoms: C2_24  and  O2_38 
REMARK       I    between atoms: C7_27  and  C8_31 
REMARK       I    between atoms: C7_27  and  N_56 
REMARK       I    between atoms: O4_29  and  S_45 
REMARK       I    between atoms: O1_30  and  C4_35 
REMARK       I    between atoms: C6_32  and  C5_42 
REMARK       I    between atoms: C2_33  and  O2_48 
REMARK       I    between atoms: C8_34  and  C7_58 
REMARK       I    between atoms: C2_36  and  N_56 
REMARK       I    between atoms: N_37  and  C7_58 
REMARK       I    between atoms: O3_44  and  C3_57 
REMARK       I    between atoms: O3_46  and  C1_59 
ROOT
ATOM      1  C4  ASG d 812       3.818  47.600  75.472  0.00  0.00     0.114 C 
ATOM      2  C1  ASG d 812       6.524  48.045  76.371  0.00  0.00     0.151 C 
ATOM      3  O5  ASG d 812       5.758  49.022  75.696  0.00  0.00    -0.349 OA
ATOM      4  C6  ASG d 812       4.438  49.227  73.604  0.00  0.00     0.043 C 
ATOM      5  OSC ASG d 812       2.520  50.875  75.541  0.00  0.00    -0.572 OA
ATOM      6  O6  ASG d 812       5.494  49.808  72.842  0.00  0.00    -0.398 OA
ATOM      7  C3  ASG d 812       4.486  46.580  76.359  0.00  0.00     0.094 C 
ATOM      8  O4  ASG d 812       3.078  48.435  76.366  0.00  0.00    -0.246 OA
ATOM      9  O7  ASG d 812       6.581  47.474  79.773  0.00  0.00    -0.274 OA
ATOM     10  OSA ASG d 812       1.195  48.962  74.753  0.00  0.00    -0.572 OA
ATOM     11  C7  ASG d 812       6.545  46.353  79.252  0.00  0.00     0.214 C 
ATOM     12  S   ASG d 812       1.901  49.452  75.900  0.00  0.00     0.252 S 
ATOM     13  C8  ASG d 812       6.913  45.061  79.947  0.00  0.00    -0.003 C 
ATOM     14  C2  ASG d 812       5.545  47.234  77.220  0.00  0.00     0.087 C 
ATOM     15  C5  ASG d 812       4.940  48.335  74.722  0.00  0.00     0.090 C 
ATOM     16  OSB ASG d 812       0.976  49.611  76.977  0.00  0.00    -0.572 OA
ATOM     17  O3  ASG d 812       3.587  46.030  77.311  0.00  0.00    -0.348 OA
ATOM     18  O1  ASG d 812       7.462  48.708  77.207  0.00  0.00    -0.369 OA
ATOM     19  N   ASG d 812       6.193  46.193  77.971  0.00  0.00    -0.349 N 
ATOM     20  H   ASG d 812       3.151  47.207  74.734  0.00  0.00     0.093 H 
ATOM     21  H   ASG d 812       7.054  47.408  75.695  0.00  0.00     0.132 H 
ATOM     22  H   ASG d 812       3.853  50.014  74.032  0.00  0.00     0.078 H 
ATOM     23  H   ASG d 812       3.861  48.617  72.941  0.00  0.00     0.078 H 
ATOM     24  H   ASG d 812       6.037  50.369  73.418  0.00  0.00     0.209 HD
ATOM     25  H   ASG d 812       4.872  45.839  75.691  0.00  0.00     0.091 H 
ATOM     26  H   ASG d 812       7.182  45.266  80.962  0.00  0.00     0.040 H 
ATOM     27  H   ASG d 812       7.741  44.608  79.443  0.00  0.00     0.040 H 
ATOM     28  H   ASG d 812       6.076  44.395  79.927  0.00  0.00     0.040 H 
ATOM     29  H   ASG d 812       5.105  47.937  77.896  0.00  0.00     0.084 H 
ATOM     30  H   ASG d 812       5.545  47.620  74.204  0.00  0.00     0.090 H 
ATOM     31  H   ASG d 812       6.991  49.289  77.825  0.00  0.00     0.212 HD
ATOM     32  H   ASG d 812       6.384  45.335  77.528  0.00  0.00     0.163 HD
ATOM     33  C2  ASG d 810      -0.820  39.762  75.734  0.00  0.00     0.087 C 
ATOM     34  C1  ASG d 810      -0.328  40.762  76.796  0.00  0.00     0.154 C 
ATOM     35  O6  ASG d 810       1.500  39.423  79.875  0.00  0.00    -0.398 OA
ATOM     36  C5  ASG d 810      -0.165  38.972  78.408  0.00  0.00     0.090 C 
ATOM     37  O7  ASG d 810      -0.512  39.441  72.966  0.00  0.00    -0.274 OA
ATOM     38  C4  ASG d 810      -0.810  37.975  77.426  0.00  0.00     0.114 C 
ATOM     39  C6  ASG d 810       0.832  38.303  79.342  0.00  0.00     0.043 C 
ATOM     40  O4  ASG d 810       0.158  37.246  76.651  0.00  0.00    -0.246 OA
ATOM     41  O1  ASG d 810       0.513  41.726  76.169  0.00  0.00    -0.348 OA
ATOM     42  C8  ASG d 810      -2.639  40.390  72.511  0.00  0.00    -0.003 C 
ATOM     43  N   ASG d 810      -1.655  40.323  74.697  0.00  0.00    -0.349 N 
ATOM     44  OSC ASG d 810       1.662  35.219  76.216  0.00  0.00    -0.572 OA
ATOM     45  O3  ASG d 810      -2.190  37.768  75.450  0.00  0.00    -0.348 OA
ATOM     46  S   ASG d 810       0.227  35.618  76.788  0.00  0.00     0.252 S 
ATOM     47  O5  ASG d 810       0.509  40.040  77.710  0.00  0.00    -0.349 OA
ATOM     48  OSB ASG d 810      -0.850  35.030  76.002  0.00  0.00    -0.572 OA
ATOM     49  C3  ASG d 810      -1.669  38.703  76.418  0.00  0.00     0.094 C 
ATOM     50  C7  ASG d 810      -1.505  40.015  73.403  0.00  0.00     0.214 C 
ATOM     51  OSA ASG d 810       0.175  35.296  78.210  0.00  0.00    -0.572 OA
ATOM     52  H   ASG d 810       0.071  39.390  75.273  0.00  0.00     0.084 H 
ATOM     53  H   ASG d 810      -1.163  41.227  77.277  0.00  0.00     0.132 H 
ATOM     54  H   ASG d 810       2.179  39.127  80.501  0.00  0.00     0.209 HD
ATOM     55  H   ASG d 810      -0.971  39.369  78.989  0.00  0.00     0.090 H 
ATOM     56  H   ASG d 810      -1.374  37.304  78.039  0.00  0.00     0.093 H 
ATOM     57  H   ASG d 810       0.337  37.741  80.106  0.00  0.00     0.078 H 
ATOM     58  H   ASG d 810       1.475  37.594  78.864  0.00  0.00     0.078 H 
ATOM     59  H   ASG d 810      -2.414  40.099  71.506  0.00  0.00     0.040 H 
ATOM     60  H   ASG d 810      -2.789  41.449  72.551  0.00  0.00     0.040 H 
ATOM     61  H   ASG d 810      -3.528  39.891  72.836  0.00  0.00     0.040 H 
ATOM     62  H   ASG d 810      -2.363  40.958  74.952  0.00  0.00     0.163 HD
ATOM     63  H   ASG d 810      -2.497  39.171  76.909  0.00  0.00     0.091 H 
ATOM     64  O6A GAD d 809      -7.422  38.023  77.466  0.00  0.00    -0.642 OA
ATOM     65  C1  GAD d 809      -3.456  37.714  75.026  0.00  0.00     0.165 C 
ATOM     66  C3  GAD d 809      -5.376  36.728  73.749  0.00  0.00     0.084 C 
ATOM     67  C5  GAD d 809      -5.506  37.433  76.218  0.00  0.00     0.147 C 
ATOM     68  O6B GAD d 809      -5.499  37.886  78.598  0.00  0.00    -0.642 OA
ATOM     69  C2  GAD d 809      -3.852  36.768  73.866  0.00  0.00     0.111 C 
ATOM     70  C4  GAD d 809      -6.094  37.262  75.019  0.00  0.00    -0.034 C 
ATOM     71  O2  GAD d 809      -3.245  37.071  72.571  0.00  0.00    -0.388 OA
ATOM     72  C6  GAD d 809      -6.207  37.800  77.535  0.00  0.00     0.233 C 
ATOM     73  O3  GAD d 809      -5.831  35.401  73.374  0.00  0.00    -0.389 OA
ATOM     74  O5  GAD d 809      -4.078  37.329  76.265  0.00  0.00    -0.311 OA
ATOM     75  H   GAD d 809      -3.740  38.632  74.556  0.00  0.00     0.134 H 
ATOM     76  H   GAD d 809      -5.649  37.401  72.963  0.00  0.00     0.093 H 
ATOM     77  H   GAD d 809      -3.457  35.808  74.124  0.00  0.00     0.095 H 
ATOM     78  H   GAD d 809      -7.094  37.503  74.938  0.00  0.00     0.085 H 
ATOM     79  H   GAD d 809      -3.556  37.937  72.263  0.00  0.00     0.210 HD
ATOM     80  H   GAD d 809      -5.595  34.769  74.071  0.00  0.00     0.210 HD
ATOM     81  O3  GCT d 811       2.198  41.810  79.037  0.00  0.00    -0.390 OA
ATOM     82  C3  GCT d 811       2.395  42.601  77.881  0.00  0.00     0.092 C 
ATOM     83  O5  GCT d 811       2.475  44.468  75.930  0.00  0.00    -0.340 OA
ATOM     84  C2  GCT d 811       3.067  43.904  78.256  0.00  0.00     0.110 C 
ATOM     85  C6  GCT d 811       0.187  45.252  76.452  0.00  0.00     0.206 C 
ATOM     86  C4  GCT d 811       1.035  43.008  77.307  0.00  0.00     0.103 C 
ATOM     87  O2  GCT d 811       4.269  43.662  78.927  0.00  0.00    -0.388 OA
ATOM     88  O6A GCT d 811       0.450  46.406  75.976  0.00  0.00    -0.646 OA
ATOM     89  C5  GCT d 811       1.103  44.057  76.194  0.00  0.00     0.152 C 
ATOM     90  O6B GCT d 811      -0.851  45.044  77.139  0.00  0.00    -0.646 OA
ATOM     91  C1  GCT d 811       3.422  44.660  76.988  0.00  0.00     0.160 C 
ATOM     92  H   GCT d 811       3.059  41.551  79.402  0.00  0.00     0.210 HD
ATOM     93  H   GCT d 811       2.980  42.032  77.189  0.00  0.00     0.091 H 
ATOM     94  H   GCT d 811       2.396  44.458  78.879  0.00  0.00     0.094 H 
ATOM     95  H   GCT d 811       0.470  43.269  78.177  0.00  0.00     0.092 H 
ATOM     96  H   GCT d 811       4.866  43.160  78.350  0.00  0.00     0.210 HD
ATOM     97  H   GCT d 811       0.733  43.586  75.307  0.00  0.00     0.104 H 
ATOM     98  H   GCT d 811       4.340  44.265  76.605  0.00  0.00     0.133 H 
ENDROOT
TORSDOF 25
