REMARK  0 active torsions:
REMARK  status: ('A' for Active; 'I' for Inactive)
REMARK       I    between atoms: C3_1  and  O3_18 
REMARK       I    between atoms: O6_3  and  C6_41 
REMARK       I    between atoms: O6_3  and  S2_27 
REMARK       I    between atoms: C1_4  and  O1_67 
REMARK       I    between atoms: O2_6  and  C2_60 
REMARK       I    between atoms: O2_6  and  S_64 
REMARK       I    between atoms: C5_7  and  C6_41 
REMARK       I    between atoms: C6_9  and  C5_36 
REMARK       I    between atoms: N_10  and  C2_26 
REMARK       I    between atoms: N_10  and  S1_14 
REMARK       I    between atoms: O2_12  and  C2_39 
REMARK       I    between atoms: O2_12  and  S_34 
REMARK       I    between atoms: C3_13  and  O3_44 
REMARK       I    between atoms: S1_14  and  O1S_57 
REMARK       I    between atoms: S1_14  and  O2S_48 
REMARK       I    between atoms: S1_14  and  O3S_38 
REMARK       I    between atoms: C6_16  and  C5_68 
REMARK       I    between atoms: C4_17  and  O4_62 
REMARK       I    between atoms: N_21  and  C2_65 
REMARK       I    between atoms: N_21  and  S1_69 
REMARK       I    between atoms: C3_25  and  O3_30 
REMARK       I    between atoms: O3S_29  and  S1_69 
REMARK       I    between atoms: O4_31  and  C1_42 
REMARK       I    between atoms: O4_31  and  C4_63 
REMARK       I    between atoms: S2_35  and  O6_49 
REMARK       I    between atoms: O1_37  and  C1_61 
REMARK       I    between atoms: O2S_45  and  S1_69 
REMARK       I    between atoms: O3_46  and  C3_55 
REMARK       I    between atoms: C5_47  and  C6_66 
REMARK       I    between atoms: O6_49  and  C6_66 
REMARK       I    between atoms: O1S_52  and  S1_69 
REMARK       I    between atoms: C1_54  and  O4_62 
REMARK       I    between atoms: C4_59  and  O1_67 
ROOT
ATOM      1  C3  UAP d 901      -5.363  59.422 -16.305  0.00  0.00     0.086 C 
ATOM      2  O1S UAP d 901      -7.066  61.245 -12.376  0.00  0.00    -0.572 OA
ATOM      3  C6  UAP d 901      -6.338  56.070 -17.418  0.00  0.00     0.233 C 
ATOM      4  O2  UAP d 901      -5.956  59.435 -13.967  0.00  0.00    -0.244 OA
ATOM      5  O3  UAP d 901      -4.321  60.116 -16.957  0.00  0.00    -0.389 OA
ATOM      6  O61 UAP d 901      -6.564  56.325 -18.623  0.00  0.00    -0.642 OA
ATOM      7  O5  UAP d 901      -5.700  56.790 -15.314  0.00  0.00    -0.311 OA
ATOM      8  O2S UAP d 901      -5.787  62.068 -14.243  0.00  0.00    -0.572 OA
ATOM      9  S   UAP d 901      -5.865  61.026 -13.203  0.00  0.00     0.252 S 
ATOM     10  C5  UAP d 901      -5.934  57.050 -16.609  0.00  0.00     0.147 C 
ATOM     11  C2  UAP d 901      -4.941  59.039 -14.886  0.00  0.00     0.135 C 
ATOM     12  O62 UAP d 901      -6.492  54.920 -16.954  0.00  0.00    -0.642 OA
ATOM     13  O3S UAP d 901      -4.662  61.091 -12.352  0.00  0.00    -0.572 OA
ATOM     14  C4  UAP d 901      -5.779  58.290 -17.107  0.00  0.00    -0.034 C 
ATOM     15  C1  UAP d 901      -4.651  57.553 -14.723  0.00  0.00     0.167 C 
ATOM     16  H   UAP d 901      -6.218  60.057 -16.202  0.00  0.00     0.093 H 
ATOM     17  H   UAP d 901      -3.551  59.533 -17.046  0.00  0.00     0.210 HD
ATOM     18  H   UAP d 901      -4.025  59.553 -14.684  0.00  0.00     0.097 H 
ATOM     19  H   UAP d 901      -5.966  58.442 -18.110  0.00  0.00     0.085 H 
ATOM     20  H   UAP d 901      -4.605  57.302 -13.684  0.00  0.00     0.134 H 
ATOM     21  O1S IDS d 903       6.213  51.676 -12.005  0.00  0.00    -0.572 OA
ATOM     22  O2  IDS d 903       4.380  52.879 -13.486  0.00  0.00    -0.244 OA
ATOM     23  O5  IDS d 903       3.386  55.397 -15.837  0.00  0.00    -0.340 OA
ATOM     24  C6  IDS d 903       1.696  57.052 -15.923  0.00  0.00     0.206 C 
ATOM     25  O2S IDS d 903       5.597  53.922 -11.375  0.00  0.00    -0.572 OA
ATOM     26  C3  IDS d 903       2.267  53.785 -14.090  0.00  0.00     0.094 C 
ATOM     27  O3S IDS d 903       4.071  52.096 -10.983  0.00  0.00    -0.572 OA
ATOM     28  O3  IDS d 903       1.684  53.157 -12.969  0.00  0.00    -0.390 OA
ATOM     29  O61 IDS d 903       0.932  57.881 -15.395  0.00  0.00    -0.646 OA
ATOM     30  C1  IDS d 903       4.356  54.677 -15.060  0.00  0.00     0.161 C 
ATOM     31  C4  IDS d 903       1.539  55.107 -14.366  0.00  0.00     0.103 C 
ATOM     32  C2  IDS d 903       3.714  54.099 -13.791  0.00  0.00     0.134 C 
ATOM     33  S   IDS d 903       5.100  52.636 -11.896  0.00  0.00     0.252 S 
ATOM     34  C5  IDS d 903       2.484  56.125 -15.018  0.00  0.00     0.152 C 
ATOM     35  O62 IDS d 903       1.849  56.955 -17.162  0.00  0.00    -0.646 OA
ATOM     36  H   IDS d 903       2.194  53.135 -14.936  0.00  0.00     0.091 H 
ATOM     37  H   IDS d 903       1.749  53.744 -12.200  0.00  0.00     0.210 HD
ATOM     38  H   IDS d 903       4.748  53.886 -15.665  0.00  0.00     0.133 H 
ATOM     39  H   IDS d 903       1.184  55.497 -13.435  0.00  0.00     0.092 H 
ATOM     40  H   IDS d 903       3.786  54.790 -12.978  0.00  0.00     0.097 H 
ATOM     41  H   IDS d 903       2.987  56.694 -14.264  0.00  0.00     0.104 H 
ATOM     42  O6  SGN d 902      -3.269  55.682 -12.060  0.00  0.00    -0.254 OA
ATOM     43  C1  SGN d 902      -0.649  54.144 -14.727  0.00  0.00     0.150 C 
ATOM     44  C5  SGN d 902      -1.793  56.109 -13.896  0.00  0.00     0.091 C 
ATOM     45  N   SGN d 902      -1.103  53.330 -16.972  0.00  0.00    -0.210 NA
ATOM     46  S1  SGN d 902      -0.819  51.584 -16.976  0.00  0.00     0.156 S 
ATOM     47  C4  SGN d 902      -2.878  55.960 -14.964  0.00  0.00     0.095 C 
ATOM     48  O5S SGN d 902      -4.091  56.036  -9.572  0.00  0.00    -0.572 OA
ATOM     49  C2  SGN d 902      -1.706  53.954 -15.812  0.00  0.00     0.081 C 
ATOM     50  S2  SGN d 902      -4.564  56.167 -10.964  0.00  0.00     0.251 S 
ATOM     51  O3S SGN d 902      -0.179  51.185 -15.709  0.00  0.00    -0.296 OA
ATOM     52  C6  SGN d 902      -2.394  56.664 -12.612  0.00  0.00     0.067 C 
ATOM     53  O3  SGN d 902      -3.275  55.141 -17.189  0.00  0.00    -0.391 OA
ATOM     54  O2S SGN d 902      -2.107  50.880 -17.116  0.00  0.00    -0.296 OA
ATOM     55  O6S SGN d 902      -4.935  57.569 -11.235  0.00  0.00    -0.572 OA
ATOM     56  C3  SGN d 902      -2.281  55.309 -16.204  0.00  0.00     0.083 C 
ATOM     57  O5  SGN d 902      -1.239  54.816 -13.606  0.00  0.00    -0.349 OA
ATOM     58  O1S SGN d 902       0.061  51.234 -18.106  0.00  0.00    -0.296 OA
ATOM     59  O4S SGN d 902      -5.737  55.297 -11.174  0.00  0.00    -0.572 OA
ATOM     60  O4  SGN d 902      -3.389  57.247 -15.314  0.00  0.00    -0.348 OA
ATOM     61  O1  SGN d 902       0.459  54.866 -15.269  0.00  0.00    -0.348 OA
ATOM     62  H   SGN d 902      -0.283  53.199 -14.384  0.00  0.00     0.131 H 
ATOM     63  H   SGN d 902      -1.038  56.774 -14.261  0.00  0.00     0.090 H 
ATOM     64  H   SGN d 902      -0.197  53.778 -17.112  0.00  0.00     0.140 HD
ATOM     65  H   SGN d 902      -3.670  55.352 -14.579  0.00  0.00     0.091 H 
ATOM     66  H   SGN d 902      -2.490  53.328 -15.440  0.00  0.00     0.076 H 
ATOM     67  H   SGN d 902       0.669  51.647 -15.615  0.00  0.00     0.231 HD
ATOM     68  H   SGN d 902      -1.613  56.885 -11.914  0.00  0.00     0.080 H 
ATOM     69  H   SGN d 902      -2.936  57.563 -12.820  0.00  0.00     0.080 H 
ATOM     70  H   SGN d 902      -3.637  56.007 -17.434  0.00  0.00     0.210 HD
ATOM     71  H   SGN d 902      -2.530  51.141 -17.949  0.00  0.00     0.231 HD
ATOM     72  H   SGN d 902      -1.509  55.932 -16.604  0.00  0.00     0.089 H 
ATOM     73  H   SGN d 902      -0.362  51.497 -18.939  0.00  0.00     0.231 HD
ATOM     74  O4S SGN d 904       6.715  51.736 -18.368  0.00  0.00    -0.572 OA
ATOM     75  O5S SGN d 904       8.186  50.875 -16.663  0.00  0.00    -0.572 OA
ATOM     76  C3  SGN d 904       6.399  57.401 -15.783  0.00  0.00     0.083 C 
ATOM     77  N   SGN d 904       7.620  59.195 -16.840  0.00  0.00    -0.210 NA
ATOM     78  O5  SGN d 904       8.725  55.791 -16.081  0.00  0.00    -0.350 OA
ATOM     79  O6S SGN d 904       5.919  51.459 -16.104  0.00  0.00    -0.572 OA
ATOM     80  O3S SGN d 904       8.275  58.968 -19.374  0.00  0.00    -0.296 OA
ATOM     81  O4  SGN d 904       5.382  55.575 -14.645  0.00  0.00    -0.348 OA
ATOM     82  S2  SGN d 904       7.083  51.809 -16.941  0.00  0.00     0.251 S 
ATOM     83  O1  SGN d 904       9.144  57.816 -14.951  0.00  0.00    -0.369 OA
ATOM     84  O3  SGN d 904       5.184  57.881 -16.313  0.00  0.00    -0.391 OA
ATOM     85  O2S SGN d 904       8.014  61.209 -18.508  0.00  0.00    -0.296 OA
ATOM     86  C5  SGN d 904       7.704  55.366 -15.172  0.00  0.00     0.091 C 
ATOM     87  O6  SGN d 904       7.602  53.444 -16.553  0.00  0.00    -0.254 OA
ATOM     88  O1S SGN d 904       9.942  59.886 -17.895  0.00  0.00    -0.296 OA
ATOM     89  C1  SGN d 904       8.844  57.211 -16.212  0.00  0.00     0.147 C 
ATOM     90  C4  SGN d 904       6.347  55.887 -15.646  0.00  0.00     0.095 C 
ATOM     91  C2  SGN d 904       7.524  57.761 -16.734  0.00  0.00     0.081 C 
ATOM     92  C6  SGN d 904       7.695  53.850 -15.189  0.00  0.00     0.067 C 
ATOM     93  S1  SGN d 904       8.504  59.848 -18.214  0.00  0.00     0.156 S 
ATOM     94  H   SGN d 904       6.561  57.841 -14.821  0.00  0.00     0.089 H 
ATOM     95  H   SGN d 904       8.076  59.535 -15.993  0.00  0.00     0.140 HD
ATOM     96  H   SGN d 904       7.328  58.946 -19.581  0.00  0.00     0.231 HD
ATOM     97  H   SGN d 904       9.985  57.467 -14.617  0.00  0.00     0.212 HD
ATOM     98  H   SGN d 904       5.033  57.485 -17.185  0.00  0.00     0.210 HD
ATOM     99  H   SGN d 904       7.067  61.174 -18.717  0.00  0.00     0.231 HD
ATOM    100  H   SGN d 904       7.890  55.739 -14.187  0.00  0.00     0.090 H 
ATOM    101  H   SGN d 904      10.255  58.988 -17.703  0.00  0.00     0.231 HD
ATOM    102  H   SGN d 904       9.641  57.435 -16.890  0.00  0.00     0.131 H 
ATOM    103  H   SGN d 904       6.098  55.443 -16.587  0.00  0.00     0.091 H 
ATOM    104  H   SGN d 904       7.319  57.336 -17.694  0.00  0.00     0.076 H 
ATOM    105  H   SGN d 904       6.854  53.482 -14.639  0.00  0.00     0.080 H 
ATOM    106  H   SGN d 904       8.582  53.460 -14.736  0.00  0.00     0.080 H 
ENDROOT
TORSDOF 33
