MODEL 1
REMARK VINA RESULT:      -8.4      0.000      0.000
REMARK  0 active torsions:
REMARK  status: ('A' for Active; 'I' for Inactive)
REMARK       I    between atoms: C3_1  and  O3_18 
REMARK       I    between atoms: O6_3  and  C6_41 
REMARK       I    between atoms: O6_3  and  S2_27 
REMARK       I    between atoms: C1_4  and  O1_67 
REMARK       I    between atoms: O2_6  and  C2_60 
REMARK       I    between atoms: O2_6  and  S_64 
REMARK       I    between atoms: C5_7  and  C6_41 
REMARK       I    between atoms: C6_9  and  C5_36 
REMARK       I    between atoms: N_10  and  C2_26 
REMARK       I    between atoms: N_10  and  S1_14 
REMARK       I    between atoms: O2_12  and  C2_39 
REMARK       I    between atoms: O2_12  and  S_34 
REMARK       I    between atoms: C3_13  and  O3_44 
REMARK       I    between atoms: S1_14  and  O1S_57 
REMARK       I    between atoms: S1_14  and  O2S_48 
REMARK       I    between atoms: S1_14  and  O3S_38 
REMARK       I    between atoms: C6_16  and  C5_68 
REMARK       I    between atoms: C4_17  and  O4_62 
REMARK       I    between atoms: N_21  and  C2_65 
REMARK       I    between atoms: N_21  and  S1_69 
REMARK       I    between atoms: C3_25  and  O3_30 
REMARK       I    between atoms: O3S_29  and  S1_69 
REMARK       I    between atoms: O4_31  and  C1_42 
REMARK       I    between atoms: O4_31  and  C4_63 
REMARK       I    between atoms: S2_35  and  O6_49 
REMARK       I    between atoms: O1_37  and  C1_61 
REMARK       I    between atoms: O2S_45  and  S1_69 
REMARK       I    between atoms: O3_46  and  C3_55 
REMARK       I    between atoms: C5_47  and  C6_66 
REMARK       I    between atoms: O6_49  and  C6_66 
REMARK       I    between atoms: O1S_52  and  S1_69 
REMARK       I    between atoms: C1_54  and  O4_62 
REMARK       I    between atoms: C4_59  and  O1_67 
ROOT
ATOM      1  C3  UAP d 901     -34.484  75.303  21.142  0.00  0.00     0.086 C 
ATOM      2  O1S UAP d 901     -32.931  74.740  25.492  0.00  0.00    -0.572 OA
ATOM      3  C6  UAP d 901     -32.584  74.045  18.272  0.00  0.00     0.233 C 
ATOM      4  O2  UAP d 901     -32.851  75.367  22.916  0.00  0.00    -0.244 OA
ATOM      5  O3  UAP d 901     -35.609  76.133  20.945  0.00  0.00    -0.389 OA
ATOM      6  O61 UAP d 901     -33.521  73.502  17.644  0.00  0.00    -0.642 OA
ATOM      7  O5  UAP d 901     -31.845  75.234  20.115  0.00  0.00    -0.311 OA
ATOM      8  O2S UAP d 901     -34.991  75.468  24.481  0.00  0.00    -0.572 OA
ATOM      9  S   UAP d 901     -33.531  75.670  24.519  0.00  0.00     0.252 S 
ATOM     10  C5  UAP d 901     -32.843  74.658  19.428  0.00  0.00     0.147 C 
ATOM     11  C2  UAP d 901     -33.348  76.092  21.794  0.00  0.00     0.135 C 
ATOM     12  O62 UAP d 901     -31.409  74.016  17.847  0.00  0.00    -0.642 OA
ATOM     13  O3S UAP d 901     -33.237  77.059  24.919  0.00  0.00    -0.572 OA
ATOM     14  C4  UAP d 901     -34.106  74.679  19.890  0.00  0.00    -0.034 C 
ATOM     15  C1  UAP d 901     -32.206  76.408  20.838  0.00  0.00     0.167 C 
ATOM     16  H   UAP d 901     -34.726  74.511  21.819  0.00  0.00     0.093 H 
ATOM     17  H   UAP d 901     -35.380  76.847  20.329  0.00  0.00     0.210 HD
ATOM     18  H   UAP d 901     -33.758  77.031  22.101  0.00  0.00     0.097 H 
ATOM     19  H   UAP d 901     -34.842  74.228  19.326  0.00  0.00     0.085 H 
ATOM     20  H   UAP d 901     -31.348  76.732  21.389  0.00  0.00     0.134 H 
ATOM     21  O1S IDS d 903     -28.085  87.570  16.552  0.00  0.00    -0.572 OA
ATOM     22  O2  IDS d 903     -29.606  85.410  16.700  0.00  0.00    -0.244 OA
ATOM     23  O5  IDS d 903     -32.813  83.829  16.961  0.00  0.00    -0.340 OA
ATOM     24  C6  IDS d 903     -33.776  82.188  18.369  0.00  0.00     0.206 C 
ATOM     25  O2S IDS d 903     -29.204  87.160  18.650  0.00  0.00    -0.572 OA
ATOM     26  C3  IDS d 903     -30.283  83.218  17.319  0.00  0.00     0.094 C 
ATOM     27  O3S IDS d 903     -27.333  85.788  17.990  0.00  0.00    -0.572 OA
ATOM     28  O3  IDS d 903     -28.982  82.957  17.798  0.00  0.00    -0.390 OA
ATOM     29  O61 IDS d 903     -33.898  81.600  19.460  0.00  0.00    -0.646 OA
ATOM     30  C1  IDS d 903     -31.952  84.970  16.821  0.00  0.00     0.161 C 
ATOM     31  C4  IDS d 903     -31.301  82.449  18.172  0.00  0.00     0.103 C 
ATOM     32  C2  IDS d 903     -30.579  84.693  17.451  0.00  0.00     0.134 C 
ATOM     33  S   IDS d 903     -28.515  86.534  17.508  0.00  0.00     0.252 S 
ATOM     34  C5  IDS d 903     -32.645  83.187  18.216  0.00  0.00     0.152 C 
ATOM     35  O62 IDS d 903     -34.546  81.999  17.400  0.00  0.00    -0.646 OA
ATOM     36  H   IDS d 903     -30.350  82.914  16.296  0.00  0.00     0.091 H 
ATOM     37  H   IDS d 903     -28.919  83.232  18.726  0.00  0.00     0.210 HD
ATOM     38  H   IDS d 903     -31.841  85.179  15.778  0.00  0.00     0.133 H 
ATOM     39  H   IDS d 903     -30.911  82.362  19.165  0.00  0.00     0.092 H 
ATOM     40  H   IDS d 903     -30.564  84.987  18.479  0.00  0.00     0.097 H 
ATOM     41  H   IDS d 903     -32.658  83.879  19.032  0.00  0.00     0.104 H 
ATOM     42  O6  SGN d 902     -29.337  78.450  21.159  0.00  0.00    -0.254 OA
ATOM     43  C1  SGN d 902     -30.437  80.240  17.705  0.00  0.00     0.150 C 
ATOM     44  C5  SGN d 902     -31.123  79.375  19.859  0.00  0.00     0.091 C 
ATOM     45  N   SGN d 902     -31.233  79.190  15.662  0.00  0.00    -0.210 NA
ATOM     46  S1  SGN d 902     -30.008  79.453  14.413  0.00  0.00     0.156 S 
ATOM     47  C4  SGN d 902     -31.518  78.040  19.225  0.00  0.00     0.095 C 
ATOM     48  O5S SGN d 902     -27.814  78.336  23.317  0.00  0.00    -0.572 OA
ATOM     49  C2  SGN d 902     -30.819  78.927  17.025  0.00  0.00     0.081 C 
ATOM     50  S2  SGN d 902     -28.738  77.504  22.522  0.00  0.00     0.251 S 
ATOM     51  O3S SGN d 902     -29.000  80.410  14.903  0.00  0.00    -0.296 OA
ATOM     52  C6  SGN d 902     -30.577  79.148  21.262  0.00  0.00     0.067 C 
ATOM     53  O3  SGN d 902     -32.308  77.050  17.182  0.00  0.00    -0.391 OA
ATOM     54  O2S SGN d 902     -29.351  78.171  14.095  0.00  0.00    -0.296 OA
ATOM     55  O6S SGN d 902     -29.876  77.081  23.361  0.00  0.00    -0.572 OA
ATOM     56  C3  SGN d 902     -31.964  78.275  17.788  0.00  0.00     0.083 C 
ATOM     57  O5  SGN d 902     -30.086  79.980  19.070  0.00  0.00    -0.349 OA
ATOM     58  O1S SGN d 902     -30.653  79.991  13.201  0.00  0.00    -0.296 OA
ATOM     59  O4S SGN d 902     -28.027  76.313  22.019  0.00  0.00    -0.572 OA
ATOM     60  O4  SGN d 902     -32.598  77.460  19.959  0.00  0.00    -0.348 OA
ATOM     61  O1  SGN d 902     -31.522  81.163  17.591  0.00  0.00    -0.348 OA
ATOM     62  H   SGN d 902     -29.586  80.681  17.228  0.00  0.00     0.131 H 
ATOM     63  H   SGN d 902     -31.986  80.006  19.902  0.00  0.00     0.090 H 
ATOM     64  H   SGN d 902     -31.816  80.026  15.685  0.00  0.00     0.140 HD
ATOM     65  H   SGN d 902     -30.677  77.379  19.242  0.00  0.00     0.091 H 
ATOM     66  H   SGN d 902     -29.974  78.271  17.019  0.00  0.00     0.076 H 
ATOM     67  H   SGN d 902     -29.430  81.255  15.112  0.00  0.00     0.231 HD
ATOM     68  H   SGN d 902     -30.422  80.090  21.746  0.00  0.00     0.080 H 
ATOM     69  H   SGN d 902     -31.274  78.575  21.837  0.00  0.00     0.080 H 
ATOM     70  H   SGN d 902     -33.037  76.640  17.672  0.00  0.00     0.210 HD
ATOM     71  H   SGN d 902     -30.013  77.540  13.772  0.00  0.00     0.231 HD
ATOM     72  H   SGN d 902     -32.823  78.913  17.775  0.00  0.00     0.089 H 
ATOM     73  H   SGN d 902     -31.316  79.360  12.879  0.00  0.00     0.231 HD
ATOM     74  O4S SGN d 904     -32.397  86.327  12.014  0.00  0.00    -0.572 OA
ATOM     75  O5S SGN d 904     -30.914  88.201  12.330  0.00  0.00    -0.572 OA
ATOM     76  C3  SGN d 904     -34.791  86.755  17.755  0.00  0.00     0.083 C 
ATOM     77  N   SGN d 904     -37.019  87.652  17.986  0.00  0.00    -0.210 NA
ATOM     78  O5  SGN d 904     -34.229  88.904  15.979  0.00  0.00    -0.350 OA
ATOM     79  O6S SGN d 904     -30.564  86.174  13.579  0.00  0.00    -0.572 OA
ATOM     80  O3S SGN d 904     -38.636  87.594  15.916  0.00  0.00    -0.296 OA
ATOM     81  O4  SGN d 904     -32.522  86.075  17.518  0.00  0.00    -0.348 OA
ATOM     82  S2  SGN d 904     -31.581  87.069  12.993  0.00  0.00     0.251 S 
ATOM     83  O1  SGN d 904     -35.045  89.624  18.068  0.00  0.00    -0.369 OA
ATOM     84  O3  SGN d 904     -35.270  85.444  17.954  0.00  0.00    -0.391 OA
ATOM     85  O2S SGN d 904     -39.661  87.590  18.104  0.00  0.00    -0.296 OA
ATOM     86  C5  SGN d 904     -33.136  88.166  16.535  0.00  0.00     0.091 C 
ATOM     87  O6  SGN d 904     -32.617  87.682  14.275  0.00  0.00    -0.254 OA
ATOM     88  O1S SGN d 904     -38.638  89.605  17.245  0.00  0.00    -0.296 OA
ATOM     89  C1  SGN d 904     -35.376  88.990  16.829  0.00  0.00     0.147 C 
ATOM     90  C4  SGN d 904     -33.583  86.734  16.831  0.00  0.00     0.095 C 
ATOM     91  C2  SGN d 904     -35.882  87.581  17.103  0.00  0.00     0.081 C 
ATOM     92  C6  SGN d 904     -32.035  88.144  15.492  0.00  0.00     0.067 C 
ATOM     93  S1  SGN d 904     -38.560  88.134  17.285  0.00  0.00     0.156 S 
ATOM     94  H   SGN d 904     -34.511  87.174  18.699  0.00  0.00     0.089 H 
ATOM     95  H   SGN d 904     -36.795  88.323  18.722  0.00  0.00     0.140 HD
ATOM     96  H   SGN d 904     -38.584  86.626  15.947  0.00  0.00     0.231 HD
ATOM     97  H   SGN d 904     -34.723  90.523  17.896  0.00  0.00     0.212 HD
ATOM     98  H   SGN d 904     -35.526  85.060  17.102  0.00  0.00     0.210 HD
ATOM     99  H   SGN d 904     -39.601  86.622  18.125  0.00  0.00     0.231 HD
ATOM    100  H   SGN d 904     -32.796  88.614  17.445  0.00  0.00     0.090 H 
ATOM    101  H   SGN d 904     -37.912  89.953  16.705  0.00  0.00     0.231 HD
ATOM    102  H   SGN d 904     -36.129  89.575  16.344  0.00  0.00     0.131 H 
ATOM    103  H   SGN d 904     -33.831  86.236  15.916  0.00  0.00     0.091 H 
ATOM    104  H   SGN d 904     -36.165  87.121  16.180  0.00  0.00     0.076 H 
ATOM    105  H   SGN d 904     -31.253  87.482  15.799  0.00  0.00     0.080 H 
ATOM    106  H   SGN d 904     -31.613  89.119  15.366  0.00  0.00     0.080 H 
ENDROOT
TORSDOF 33
ENDMDL
MODEL 2
REMARK VINA RESULT:      -8.2      4.984     11.328
REMARK  0 active torsions:
REMARK  status: ('A' for Active; 'I' for Inactive)
REMARK       I    between atoms: C3_1  and  O3_18 
REMARK       I    between atoms: O6_3  and  C6_41 
REMARK       I    between atoms: O6_3  and  S2_27 
REMARK       I    between atoms: C1_4  and  O1_67 
REMARK       I    between atoms: O2_6  and  C2_60 
REMARK       I    between atoms: O2_6  and  S_64 
REMARK       I    between atoms: C5_7  and  C6_41 
REMARK       I    between atoms: C6_9  and  C5_36 
REMARK       I    between atoms: N_10  and  C2_26 
REMARK       I    between atoms: N_10  and  S1_14 
REMARK       I    between atoms: O2_12  and  C2_39 
REMARK       I    between atoms: O2_12  and  S_34 
REMARK       I    between atoms: C3_13  and  O3_44 
REMARK       I    between atoms: S1_14  and  O1S_57 
REMARK       I    between atoms: S1_14  and  O2S_48 
REMARK       I    between atoms: S1_14  and  O3S_38 
REMARK       I    between atoms: C6_16  and  C5_68 
REMARK       I    between atoms: C4_17  and  O4_62 
REMARK       I    between atoms: N_21  and  C2_65 
REMARK       I    between atoms: N_21  and  S1_69 
REMARK       I    between atoms: C3_25  and  O3_30 
REMARK       I    between atoms: O3S_29  and  S1_69 
REMARK       I    between atoms: O4_31  and  C1_42 
REMARK       I    between atoms: O4_31  and  C4_63 
REMARK       I    between atoms: S2_35  and  O6_49 
REMARK       I    between atoms: O1_37  and  C1_61 
REMARK       I    between atoms: O2S_45  and  S1_69 
REMARK       I    between atoms: O3_46  and  C3_55 
REMARK       I    between atoms: C5_47  and  C6_66 
REMARK       I    between atoms: O6_49  and  C6_66 
REMARK       I    between atoms: O1S_52  and  S1_69 
REMARK       I    between atoms: C1_54  and  O4_62 
REMARK       I    between atoms: C4_59  and  O1_67 
ROOT
ATOM      1  C3  UAP d 901     -23.707  87.898  15.187  0.00  0.00     0.086 C 
ATOM      2  O1S UAP d 901     -20.230  86.200  12.600  0.00  0.00    -0.572 OA
ATOM      3  C6  UAP d 901     -23.286  88.482  18.780  0.00  0.00     0.233 C 
ATOM      4  O2  UAP d 901     -21.908  86.384  14.647  0.00  0.00    -0.244 OA
ATOM      5  O3  UAP d 901     -24.981  88.006  14.590  0.00  0.00    -0.389 OA
ATOM      6  O61 UAP d 901     -23.793  89.625  18.850  0.00  0.00    -0.642 OA
ATOM      7  O5  UAP d 901     -22.685  86.643  17.512  0.00  0.00    -0.311 OA
ATOM      8  O2S UAP d 901     -22.391  87.168  12.159  0.00  0.00    -0.572 OA
ATOM      9  S   UAP d 901     -21.669  86.128  12.915  0.00  0.00     0.252 S 
ATOM     10  C5  UAP d 901     -23.236  87.863  17.600  0.00  0.00     0.147 C 
ATOM     11  C2  UAP d 901     -23.233  86.444  15.171  0.00  0.00     0.135 C 
ATOM     12  O62 UAP d 901     -22.817  87.913  19.788  0.00  0.00    -0.642 OA
ATOM     13  O3S UAP d 901     -22.190  84.800  12.541  0.00  0.00    -0.572 OA
ATOM     14  C4  UAP d 901     -23.732  88.481  16.513  0.00  0.00    -0.034 C 
ATOM     15  C1  UAP d 901     -23.275  85.781  16.541  0.00  0.00     0.167 C 
ATOM     16  H   UAP d 901     -22.989  88.454  14.620  0.00  0.00     0.093 H 
ATOM     17  H   UAP d 901     -25.625  87.500  15.111  0.00  0.00     0.210 HD
ATOM     18  H   UAP d 901     -23.912  85.902  14.548  0.00  0.00     0.097 H 
ATOM     19  H   UAP d 901     -24.150  89.416  16.629  0.00  0.00     0.085 H 
ATOM     20  H   UAP d 901     -22.713  84.871  16.523  0.00  0.00     0.134 H 
ATOM     21  O1S IDS d 903     -30.298  76.091  20.630  0.00  0.00    -0.572 OA
ATOM     22  O2  IDS d 903     -29.701  78.587  19.989  0.00  0.00    -0.244 OA
ATOM     23  O5  IDS d 903     -30.377  81.633  18.222  0.00  0.00    -0.340 OA
ATOM     24  C6  IDS d 903     -29.149  83.060  16.787  0.00  0.00     0.206 C 
ATOM     25  O2S IDS d 903     -29.597  76.500  18.358  0.00  0.00    -0.572 OA
ATOM     26  C3  IDS d 903     -28.360  80.472  19.441  0.00  0.00     0.094 C 
ATOM     27  O3S IDS d 903     -27.988  76.584  20.153  0.00  0.00    -0.572 OA
ATOM     28  O3  IDS d 903     -27.206  79.754  19.819  0.00  0.00    -0.390 OA
ATOM     29  O61 IDS d 903     -28.282  83.277  15.921  0.00  0.00    -0.646 OA
ATOM     30  C1  IDS d 903     -30.691  80.296  18.644  0.00  0.00     0.161 C 
ATOM     31  C4  IDS d 903     -28.008  81.429  18.294  0.00  0.00     0.103 C 
ATOM     32  C2  IDS d 903     -29.409  79.506  18.942  0.00  0.00     0.134 C 
ATOM     33  S   IDS d 903     -29.387  76.867  19.770  0.00  0.00     0.252 S 
ATOM     34  C5  IDS d 903     -29.226  81.672  17.393  0.00  0.00     0.152 C 
ATOM     35  O62 IDS d 903     -29.962  83.930  17.174  0.00  0.00    -0.646 OA
ATOM     36  H   IDS d 903     -28.727  81.019  20.283  0.00  0.00     0.091 H 
ATOM     37  H   IDS d 903     -26.871  79.257  19.057  0.00  0.00     0.210 HD
ATOM     38  H   IDS d 903     -31.297  80.357  19.524  0.00  0.00     0.133 H 
ATOM     39  H   IDS d 903     -27.222  80.988  17.717  0.00  0.00     0.092 H 
ATOM     40  H   IDS d 903     -29.063  78.997  18.068  0.00  0.00     0.097 H 
ATOM     41  H   IDS d 903     -29.260  80.937  16.615  0.00  0.00     0.104 H 
ATOM     42  O6  SGN d 902     -22.790  82.434  17.573  0.00  0.00    -0.254 OA
ATOM     43  C1  SGN d 902     -26.336  82.694  19.497  0.00  0.00     0.150 C 
ATOM     44  C5  SGN d 902     -25.067  83.169  17.491  0.00  0.00     0.091 C 
ATOM     45  N   SGN d 902     -27.161  84.519  20.875  0.00  0.00    -0.210 NA
ATOM     46  S1  SGN d 902     -27.273  83.925  22.538  0.00  0.00     0.156 S 
ATOM     47  C4  SGN d 902     -24.759  84.582  17.989  0.00  0.00     0.095 C 
ATOM     48  O5S SGN d 902     -20.743  81.015  16.687  0.00  0.00    -0.572 OA
ATOM     49  C2  SGN d 902     -26.058  84.095  20.037  0.00  0.00     0.081 C 
ATOM     50  S2  SGN d 902     -21.142  82.412  16.943  0.00  0.00     0.251 S 
ATOM     51  O3S SGN d 902     -27.063  82.466  22.556  0.00  0.00    -0.296 OA
ATOM     52  C6  SGN d 902     -23.891  82.628  16.688  0.00  0.00     0.067 C 
ATOM     53  O3  SGN d 902     -25.619  86.357  19.363  0.00  0.00    -0.391 OA
ATOM     54  O2S SGN d 902     -26.238  84.579  23.360  0.00  0.00    -0.296 OA
ATOM     55  O6S SGN d 902     -21.087  83.185  15.688  0.00  0.00    -0.572 OA
ATOM     56  C3  SGN d 902     -25.900  85.066  18.874  0.00  0.00     0.083 C 
ATOM     57  O5  SGN d 902     -25.269  82.306  18.621  0.00  0.00    -0.349 OA
ATOM     58  O1S SGN d 902     -28.607  84.240  23.080  0.00  0.00    -0.296 OA
ATOM     59  O4S SGN d 902     -20.229  83.015  17.934  0.00  0.00    -0.572 OA
ATOM     60  O4  SGN d 902     -24.625  85.467  16.876  0.00  0.00    -0.348 OA
ATOM     61  O1  SGN d 902     -27.606  82.685  18.840  0.00  0.00    -0.348 OA
ATOM     62  H   SGN d 902     -26.379  81.982  20.293  0.00  0.00     0.131 H 
ATOM     63  H   SGN d 902     -25.942  83.203  16.875  0.00  0.00     0.090 H 
ATOM     64  H   SGN d 902     -28.019  84.236  20.401  0.00  0.00     0.140 HD
ATOM     65  H   SGN d 902     -23.846  84.567  18.548  0.00  0.00     0.091 H 
ATOM     66  H   SGN d 902     -25.158  84.081  20.615  0.00  0.00     0.076 H 
ATOM     67  H   SGN d 902     -27.743  82.034  22.016  0.00  0.00     0.231 HD
ATOM     68  H   SGN d 902     -24.161  81.696  16.237  0.00  0.00     0.080 H 
ATOM     69  H   SGN d 902     -23.625  83.321  15.917  0.00  0.00     0.080 H 
ATOM     70  H   SGN d 902     -25.520  86.971  18.618  0.00  0.00     0.210 HD
ATOM     71  H   SGN d 902     -26.374  85.539  23.349  0.00  0.00     0.231 HD
ATOM     72  H   SGN d 902     -26.805  85.107  18.306  0.00  0.00     0.089 H 
ATOM     73  H   SGN d 902     -28.743  85.201  23.068  0.00  0.00     0.231 HD
ATOM     74  O4S SGN d 904     -34.281  80.857  22.101  0.00  0.00    -0.572 OA
ATOM     75  O5S SGN d 904     -34.479  78.472  22.388  0.00  0.00    -0.572 OA
ATOM     76  C3  SGN d 904     -32.977  80.411  16.021  0.00  0.00     0.083 C 
ATOM     77  N   SGN d 904     -34.705  81.015  14.447  0.00  0.00    -0.210 NA
ATOM     78  O5  SGN d 904     -34.949  78.943  17.453  0.00  0.00    -0.350 OA
ATOM     79  O6S SGN d 904     -32.336  79.442  21.877  0.00  0.00    -0.572 OA
ATOM     80  O3S SGN d 904     -36.649  82.596  15.237  0.00  0.00    -0.296 OA
ATOM     81  O4  SGN d 904     -31.370  79.621  17.588  0.00  0.00    -0.348 OA
ATOM     82  S2  SGN d 904     -33.791  79.542  21.648  0.00  0.00     0.251 S 
ATOM     83  O1  SGN d 904     -34.806  78.324  15.184  0.00  0.00    -0.369 OA
ATOM     84  O3  SGN d 904     -32.305  81.629  15.790  0.00  0.00    -0.391 OA
ATOM     85  O2S SGN d 904     -36.108  82.619  12.882  0.00  0.00    -0.296 OA
ATOM     86  C5  SGN d 904     -33.566  78.688  17.725  0.00  0.00     0.091 C 
ATOM     87  O6  SGN d 904     -34.119  79.355  19.930  0.00  0.00    -0.254 OA
ATOM     88  O1S SGN d 904     -37.262  80.725  13.845  0.00  0.00    -0.296 OA
ATOM     89  C1  SGN d 904     -35.222  79.337  16.105  0.00  0.00     0.147 C 
ATOM     90  C4  SGN d 904     -32.749  79.951  17.453  0.00  0.00     0.095 C 
ATOM     91  C2  SGN d 904     -34.464  80.625  15.813  0.00  0.00     0.081 C 
ATOM     92  C6  SGN d 904     -33.460  78.326  19.193  0.00  0.00     0.067 C 
ATOM     93  S1  SGN d 904     -36.251  81.771  14.082  0.00  0.00     0.156 S 
ATOM     94  H   SGN d 904     -32.603  79.670  15.345  0.00  0.00     0.089 H 
ATOM     95  H   SGN d 904     -34.631  80.175  13.872  0.00  0.00     0.140 HD
ATOM     96  H   SGN d 904     -35.982  83.283  15.389  0.00  0.00     0.231 HD
ATOM     97  H   SGN d 904     -35.288  77.503  15.368  0.00  0.00     0.212 HD
ATOM     98  H   SGN d 904     -32.641  82.303  16.401  0.00  0.00     0.210 HD
ATOM     99  H   SGN d 904     -35.441  83.304  13.047  0.00  0.00     0.231 HD
ATOM    100  H   SGN d 904     -33.195  77.899  17.106  0.00  0.00     0.090 H 
ATOM    101  H   SGN d 904     -37.348  80.174  14.639  0.00  0.00     0.231 HD
ATOM    102  H   SGN d 904     -36.275  79.484  15.989  0.00  0.00     0.131 H 
ATOM    103  H   SGN d 904     -33.039  80.723  18.135  0.00  0.00     0.091 H 
ATOM    104  H   SGN d 904     -34.802  81.392  16.478  0.00  0.00     0.076 H 
ATOM    105  H   SGN d 904     -32.432  78.269  19.483  0.00  0.00     0.080 H 
ATOM    106  H   SGN d 904     -33.911  77.375  19.383  0.00  0.00     0.080 H 
ENDROOT
TORSDOF 33
ENDMDL
MODEL 3
REMARK VINA RESULT:      -8.1      4.921     10.201
REMARK  0 active torsions:
REMARK  status: ('A' for Active; 'I' for Inactive)
REMARK       I    between atoms: C3_1  and  O3_18 
REMARK       I    between atoms: O6_3  and  C6_41 
REMARK       I    between atoms: O6_3  and  S2_27 
REMARK       I    between atoms: C1_4  and  O1_67 
REMARK       I    between atoms: O2_6  and  C2_60 
REMARK       I    between atoms: O2_6  and  S_64 
REMARK       I    between atoms: C5_7  and  C6_41 
REMARK       I    between atoms: C6_9  and  C5_36 
REMARK       I    between atoms: N_10  and  C2_26 
REMARK       I    between atoms: N_10  and  S1_14 
REMARK       I    between atoms: O2_12  and  C2_39 
REMARK       I    between atoms: O2_12  and  S_34 
REMARK       I    between atoms: C3_13  and  O3_44 
REMARK       I    between atoms: S1_14  and  O1S_57 
REMARK       I    between atoms: S1_14  and  O2S_48 
REMARK       I    between atoms: S1_14  and  O3S_38 
REMARK       I    between atoms: C6_16  and  C5_68 
REMARK       I    between atoms: C4_17  and  O4_62 
REMARK       I    between atoms: N_21  and  C2_65 
REMARK       I    between atoms: N_21  and  S1_69 
REMARK       I    between atoms: C3_25  and  O3_30 
REMARK       I    between atoms: O3S_29  and  S1_69 
REMARK       I    between atoms: O4_31  and  C1_42 
REMARK       I    between atoms: O4_31  and  C4_63 
REMARK       I    between atoms: S2_35  and  O6_49 
REMARK       I    between atoms: O1_37  and  C1_61 
REMARK       I    between atoms: O2S_45  and  S1_69 
REMARK       I    between atoms: O3_46  and  C3_55 
REMARK       I    between atoms: C5_47  and  C6_66 
REMARK       I    between atoms: O6_49  and  C6_66 
REMARK       I    between atoms: O1S_52  and  S1_69 
REMARK       I    between atoms: C1_54  and  O4_62 
REMARK       I    between atoms: C4_59  and  O1_67 
ROOT
ATOM      1  C3  UAP d 901     -34.724  80.116  21.035  0.00  0.00     0.086 C 
ATOM      2  O1S UAP d 901     -37.376  77.625  18.133  0.00  0.00    -0.572 OA
ATOM      3  C6  UAP d 901     -35.181  83.735  21.386  0.00  0.00     0.233 C 
ATOM      4  O2  UAP d 901     -35.814  79.610  18.943  0.00  0.00    -0.244 OA
ATOM      5  O3  UAP d 901     -33.619  79.474  21.634  0.00  0.00    -0.389 OA
ATOM      6  O61 UAP d 901     -35.156  83.812  22.636  0.00  0.00    -0.642 OA
ATOM      7  O5  UAP d 901     -35.074  82.449  19.466  0.00  0.00    -0.311 OA
ATOM      8  O2S UAP d 901     -35.784  77.125  19.869  0.00  0.00    -0.572 OA
ATOM      9  S   UAP d 901     -36.010  77.883  18.625  0.00  0.00     0.252 S 
ATOM     10  C5  UAP d 901     -35.037  82.544  20.804  0.00  0.00     0.147 C 
ATOM     11  C2  UAP d 901     -34.596  80.085  19.511  0.00  0.00     0.135 C 
ATOM     12  O62 UAP d 901     -35.347  84.747  20.673  0.00  0.00    -0.642 OA
ATOM     13  O3S UAP d 901     -35.031  77.460  17.607  0.00  0.00    -0.572 OA
ATOM     14  C4  UAP d 901     -34.869  81.453  21.573  0.00  0.00    -0.034 C 
ATOM     15  C1  UAP d 901     -34.239  81.437  18.908  0.00  0.00     0.167 C 
ATOM     16  H   UAP d 901     -35.626  79.590  21.270  0.00  0.00     0.093 H 
ATOM     17  H   UAP d 901     -32.807  79.958  21.415  0.00  0.00     0.210 HD
ATOM     18  H   UAP d 901     -33.787  79.424  19.280  0.00  0.00     0.097 H 
ATOM     19  H   UAP d 901     -34.843  81.575  22.597  0.00  0.00     0.085 H 
ATOM     20  H   UAP d 901     -34.403  81.419  17.851  0.00  0.00     0.134 H 
ATOM     21  O1S IDS d 903     -23.829  85.035  12.692  0.00  0.00    -0.572 OA
ATOM     22  O2  IDS d 903     -25.377  84.474  14.763  0.00  0.00    -0.244 OA
ATOM     23  O5  IDS d 903     -26.016  82.752  17.843  0.00  0.00    -0.340 OA
ATOM     24  C6  IDS d 903     -27.764  81.398  18.687  0.00  0.00     0.206 C 
ATOM     25  O2S IDS d 903     -24.733  82.802  12.810  0.00  0.00    -0.572 OA
ATOM     26  C3  IDS d 903     -27.368  84.020  15.980  0.00  0.00     0.094 C 
ATOM     27  O3S IDS d 903     -26.168  84.657  12.250  0.00  0.00    -0.572 OA
ATOM     28  O3  IDS d 903     -28.134  84.426  14.867  0.00  0.00    -0.390 OA
ATOM     29  O61 IDS d 903     -28.685  80.571  18.555  0.00  0.00    -0.646 OA
ATOM     30  C1  IDS d 903     -25.189  83.131  16.731  0.00  0.00     0.161 C 
ATOM     31  C4  IDS d 903     -28.114  82.910  16.731  0.00  0.00     0.103 C 
ATOM     32  C2  IDS d 903     -26.049  83.460  15.502  0.00  0.00     0.134 C 
ATOM     33  S   IDS d 903     -25.007  84.228  13.058  0.00  0.00     0.252 S 
ATOM     34  C5  IDS d 903     -27.127  81.969  17.435  0.00  0.00     0.152 C 
ATOM     35  O62 IDS d 903     -27.337  81.774  19.803  0.00  0.00    -0.646 OA
ATOM     36  H   IDS d 903     -27.206  84.860  16.622  0.00  0.00     0.091 H 
ATOM     37  H   IDS d 903     -28.283  83.666  14.283  0.00  0.00     0.210 HD
ATOM     38  H   IDS d 903     -24.617  83.989  17.018  0.00  0.00     0.133 H 
ATOM     39  H   IDS d 903     -28.692  82.353  16.023  0.00  0.00     0.092 H 
ATOM     40  H   IDS d 903     -26.208  82.589  14.903  0.00  0.00     0.097 H 
ATOM     41  H   IDS d 903     -26.845  81.174  16.777  0.00  0.00     0.104 H 
ATOM     42  O6  SGN d 902     -33.339  82.411  15.630  0.00  0.00    -0.254 OA
ATOM     43  C1  SGN d 902     -30.092  84.203  17.239  0.00  0.00     0.150 C 
ATOM     44  C5  SGN d 902     -31.533  82.258  17.194  0.00  0.00     0.091 C 
ATOM     45  N   SGN d 902     -29.982  85.590  19.232  0.00  0.00    -0.210 NA
ATOM     46  S1  SGN d 902     -29.576  87.234  18.718  0.00  0.00     0.156 S 
ATOM     47  C4  SGN d 902     -32.344  82.800  18.372  0.00  0.00     0.095 C 
ATOM     48  O5S SGN d 902     -34.710  81.570  13.531  0.00  0.00    -0.572 OA
ATOM     49  C2  SGN d 902     -30.869  84.785  18.417  0.00  0.00     0.081 C 
ATOM     50  S2  SGN d 902     -34.875  81.843  14.972  0.00  0.00     0.251 S 
ATOM     51  O3S SGN d 902     -29.201  87.227  17.292  0.00  0.00    -0.296 OA
ATOM     52  C6  SGN d 902     -32.440  81.489  16.243  0.00  0.00     0.067 C 
ATOM     53  O3  SGN d 902     -32.182  84.180  20.334  0.00  0.00    -0.391 OA
ATOM     54  O2S SGN d 902     -30.746  88.110  18.912  0.00  0.00    -0.296 OA
ATOM     55  O6S SGN d 902     -35.280  80.609  15.671  0.00  0.00    -0.572 OA
ATOM     56  C3  SGN d 902     -31.443  83.652  19.257  0.00  0.00     0.083 C 
ATOM     57  O5  SGN d 902     -30.962  83.360  16.471  0.00  0.00    -0.349 OA
ATOM     58  O1S SGN d 902     -28.446  87.733  19.524  0.00  0.00    -0.296 OA
ATOM     59  O4S SGN d 902     -35.906  82.881  15.166  0.00  0.00    -0.572 OA
ATOM     60  O4  SGN d 902     -32.859  81.713  19.142  0.00  0.00    -0.348 OA
ATOM     61  O1  SGN d 902     -28.949  83.499  17.729  0.00  0.00    -0.348 OA
ATOM     62  H   SGN d 902     -29.741  84.982  16.594  0.00  0.00     0.131 H 
ATOM     63  H   SGN d 902     -30.768  81.611  17.570  0.00  0.00     0.090 H 
ATOM     64  H   SGN d 902     -29.103  85.078  19.308  0.00  0.00     0.140 HD
ATOM     65  H   SGN d 902     -33.153  83.392  18.000  0.00  0.00     0.091 H 
ATOM     66  H   SGN d 902     -31.667  85.397  18.050  0.00  0.00     0.076 H 
ATOM     67  H   SGN d 902     -28.431  86.652  17.163  0.00  0.00     0.231 HD
ATOM     68  H   SGN d 902     -31.849  81.007  15.492  0.00  0.00     0.080 H 
ATOM     69  H   SGN d 902     -32.988  80.745  16.782  0.00  0.00     0.080 H 
ATOM     70  H   SGN d 902     -32.545  83.453  20.865  0.00  0.00     0.210 HD
ATOM     71  H   SGN d 902     -30.995  88.115  19.850  0.00  0.00     0.231 HD
ATOM     72  H   SGN d 902     -30.651  83.051  19.651  0.00  0.00     0.089 H 
ATOM     73  H   SGN d 902     -28.695  87.737  20.462  0.00  0.00     0.231 HD
ATOM     74  O4S SGN d 904     -21.952  86.462  18.624  0.00  0.00    -0.572 OA
ATOM     75  O5S SGN d 904     -20.831  86.687  16.502  0.00  0.00    -0.572 OA
ATOM     76  C3  SGN d 904     -23.245  80.427  17.742  0.00  0.00     0.083 C 
ATOM     77  N   SGN d 904     -21.959  78.803  18.981  0.00  0.00    -0.210 NA
ATOM     78  O5  SGN d 904     -20.798  81.750  17.150  0.00  0.00    -0.350 OA
ATOM     79  O6S SGN d 904     -23.202  86.279  16.564  0.00  0.00    -0.572 OA
ATOM     80  O3S SGN d 904     -20.750  79.554  21.189  0.00  0.00    -0.296 OA
ATOM     81  O4  SGN d 904     -24.349  82.036  16.379  0.00  0.00    -0.348 OA
ATOM     82  S2  SGN d 904     -21.912  85.998  17.224  0.00  0.00     0.251 S 
ATOM     83  O1  SGN d 904     -20.787  79.474  16.538  0.00  0.00    -0.369 OA
ATOM     84  O3  SGN d 904     -24.347  80.250  18.604  0.00  0.00    -0.391 OA
ATOM     85  O2S SGN d 904     -21.359  77.222  21.015  0.00  0.00    -0.296 OA
ATOM     86  C5  SGN d 904     -21.959  82.068  16.375  0.00  0.00     0.091 C 
ATOM     87  O6  SGN d 904     -21.613  84.265  17.191  0.00  0.00    -0.254 OA
ATOM     88  O1S SGN d 904     -19.520  78.099  19.714  0.00  0.00    -0.296 OA
ATOM     89  C1  SGN d 904     -20.758  80.401  17.627  0.00  0.00     0.147 C 
ATOM     90  C4  SGN d 904     -23.214  81.856  17.222  0.00  0.00     0.095 C 
ATOM     91  C2  SGN d 904     -21.969  80.168  18.520  0.00  0.00     0.081 C 
ATOM     92  C6  SGN d 904     -21.851  83.531  15.991  0.00  0.00     0.067 C 
ATOM     93  S1  SGN d 904     -20.846  78.397  20.282  0.00  0.00     0.156 S 
ATOM     94  H   SGN d 904     -23.331  79.749  16.919  0.00  0.00     0.089 H 
ATOM     95  H   SGN d 904     -21.726  78.212  18.183  0.00  0.00     0.140 HD
ATOM     96  H   SGN d 904     -21.624  79.747  21.562  0.00  0.00     0.231 HD
ATOM     97  H   SGN d 904     -20.016  79.621  15.968  0.00  0.00     0.212 HD
ATOM     98  H   SGN d 904     -24.273  80.862  19.352  0.00  0.00     0.210 HD
ATOM     99  H   SGN d 904     -22.232  77.428  21.385  0.00  0.00     0.231 HD
ATOM    100  H   SGN d 904     -22.021  81.446  15.507  0.00  0.00     0.090 H 
ATOM    101  H   SGN d 904     -19.191  78.875  19.235  0.00  0.00     0.231 HD
ATOM    102  H   SGN d 904     -19.851  80.249  18.173  0.00  0.00     0.131 H 
ATOM    103  H   SGN d 904     -23.217  82.544  18.042  0.00  0.00     0.091 H 
ATOM    104  H   SGN d 904     -21.927  80.837  19.354  0.00  0.00     0.076 H 
ATOM    105  H   SGN d 904     -22.763  83.858  15.536  0.00  0.00     0.080 H 
ATOM    106  H   SGN d 904     -21.059  83.682  15.289  0.00  0.00     0.080 H 
ENDROOT
TORSDOF 33
ENDMDL
MODEL 4
REMARK VINA RESULT:      -8.1      3.773     11.108
REMARK  0 active torsions:
REMARK  status: ('A' for Active; 'I' for Inactive)
REMARK       I    between atoms: C3_1  and  O3_18 
REMARK       I    between atoms: O6_3  and  C6_41 
REMARK       I    between atoms: O6_3  and  S2_27 
REMARK       I    between atoms: C1_4  and  O1_67 
REMARK       I    between atoms: O2_6  and  C2_60 
REMARK       I    between atoms: O2_6  and  S_64 
REMARK       I    between atoms: C5_7  and  C6_41 
REMARK       I    between atoms: C6_9  and  C5_36 
REMARK       I    between atoms: N_10  and  C2_26 
REMARK       I    between atoms: N_10  and  S1_14 
REMARK       I    between atoms: O2_12  and  C2_39 
REMARK       I    between atoms: O2_12  and  S_34 
REMARK       I    between atoms: C3_13  and  O3_44 
REMARK       I    between atoms: S1_14  and  O1S_57 
REMARK       I    between atoms: S1_14  and  O2S_48 
REMARK       I    between atoms: S1_14  and  O3S_38 
REMARK       I    between atoms: C6_16  and  C5_68 
REMARK       I    between atoms: C4_17  and  O4_62 
REMARK       I    between atoms: N_21  and  C2_65 
REMARK       I    between atoms: N_21  and  S1_69 
REMARK       I    between atoms: C3_25  and  O3_30 
REMARK       I    between atoms: O3S_29  and  S1_69 
REMARK       I    between atoms: O4_31  and  C1_42 
REMARK       I    between atoms: O4_31  and  C4_63 
REMARK       I    between atoms: S2_35  and  O6_49 
REMARK       I    between atoms: O1_37  and  C1_61 
REMARK       I    between atoms: O2S_45  and  S1_69 
REMARK       I    between atoms: O3_46  and  C3_55 
REMARK       I    between atoms: C5_47  and  C6_66 
REMARK       I    between atoms: O6_49  and  C6_66 
REMARK       I    between atoms: O1S_52  and  S1_69 
REMARK       I    between atoms: C1_54  and  O4_62 
REMARK       I    between atoms: C4_59  and  O1_67 
ROOT
ATOM      1  C3  UAP d 901     -24.541  84.217  14.287  0.00  0.00     0.086 C 
ATOM      2  O1S UAP d 901     -20.776  85.068  16.888  0.00  0.00    -0.572 OA
ATOM      3  C6  UAP d 901     -26.902  86.887  13.439  0.00  0.00     0.233 C 
ATOM      4  O2  UAP d 901     -23.331  85.112  16.172  0.00  0.00    -0.244 OA
ATOM      5  O3  UAP d 901     -24.848  82.871  13.991  0.00  0.00    -0.389 OA
ATOM      6  O61 UAP d 901     -27.036  86.646  12.218  0.00  0.00    -0.642 OA
ATOM      7  O5  UAP d 901     -25.939  86.373  15.479  0.00  0.00    -0.311 OA
ATOM      8  O2S UAP d 901     -21.572  83.222  15.563  0.00  0.00    -0.572 OA
ATOM      9  S   UAP d 901     -21.915  84.164  16.643  0.00  0.00     0.252 S 
ATOM     10  C5  UAP d 901     -26.098  86.116  14.172  0.00  0.00     0.147 C 
ATOM     11  C2  UAP d 901     -24.532  84.441  15.800  0.00  0.00     0.135 C 
ATOM     12  O62 UAP d 901     -27.498  87.840  13.985  0.00  0.00    -0.642 OA
ATOM     13  O3S UAP d 901     -22.219  83.410  17.874  0.00  0.00    -0.572 OA
ATOM     14  C4  UAP d 901     -25.449  85.097  13.581  0.00  0.00    -0.034 C 
ATOM     15  C1  UAP d 901     -25.736  85.226  16.301  0.00  0.00     0.167 C 
ATOM     16  H   UAP d 901     -23.555  84.452  13.944  0.00  0.00     0.093 H 
ATOM     17  H   UAP d 901     -25.743  82.668  14.306  0.00  0.00     0.210 HD
ATOM     18  H   UAP d 901     -24.585  83.476  16.258  0.00  0.00     0.097 H 
ATOM     19  H   UAP d 901     -25.605  84.934  12.574  0.00  0.00     0.085 H 
ATOM     20  H   UAP d 901     -25.561  85.564  17.301  0.00  0.00     0.134 H 
ATOM     21  O1S IDS d 903     -35.135  81.624  23.959  0.00  0.00    -0.572 OA
ATOM     22  O2  IDS d 903     -33.773  81.890  21.706  0.00  0.00    -0.244 OA
ATOM     23  O5  IDS d 903     -32.225  80.511  18.780  0.00  0.00    -0.340 OA
ATOM     24  C6  IDS d 903     -30.087  80.658  17.775  0.00  0.00     0.206 C 
ATOM     25  O2S IDS d 903     -32.889  80.742  23.926  0.00  0.00    -0.572 OA
ATOM     26  C3  IDS d 903     -32.149  82.729  20.187  0.00  0.00     0.094 C 
ATOM     27  O3S IDS d 903     -33.250  83.126  23.980  0.00  0.00    -0.572 OA
ATOM     28  O3  IDS d 903     -31.874  83.789  21.076  0.00  0.00    -0.390 OA
ATOM     29  O61 IDS d 903     -28.850  80.785  17.821  0.00  0.00    -0.646 OA
ATOM     30  C1  IDS d 903     -33.010  80.424  19.980  0.00  0.00     0.161 C 
ATOM     31  C4  IDS d 903     -30.865  82.349  19.438  0.00  0.00     0.103 C 
ATOM     32  C2  IDS d 903     -32.610  81.524  20.972  0.00  0.00     0.134 C 
ATOM     33  S   IDS d 903     -33.762  81.838  23.467  0.00  0.00     0.252 S 
ATOM     34  C5  IDS d 903     -30.877  80.864  19.052  0.00  0.00     0.152 C 
ATOM     35  O62 IDS d 903     -30.706  80.360  16.727  0.00  0.00    -0.646 OA
ATOM     36  H   IDS d 903     -32.906  83.036  19.496  0.00  0.00     0.091 H 
ATOM     37  H   IDS d 903     -31.187  83.514  21.704  0.00  0.00     0.210 HD
ATOM     38  H   IDS d 903     -34.041  80.529  19.712  0.00  0.00     0.133 H 
ATOM     39  H   IDS d 903     -30.031  82.542  20.080  0.00  0.00     0.092 H 
ATOM     40  H   IDS d 903     -31.834  81.185  21.625  0.00  0.00     0.097 H 
ATOM     41  H   IDS d 903     -30.454  80.276  19.840  0.00  0.00     0.104 H 
ATOM     42  O6  SGN d 902     -26.903  85.962  19.557  0.00  0.00    -0.254 OA
ATOM     43  C1  SGN d 902     -30.497  84.506  18.412  0.00  0.00     0.150 C 
ATOM     44  C5  SGN d 902     -28.091  84.235  18.400  0.00  0.00     0.091 C 
ATOM     45  N   SGN d 902     -31.685  84.919  16.332  0.00  0.00    -0.210 NA
ATOM     46  S1  SGN d 902     -33.141  85.844  16.721  0.00  0.00     0.156 S 
ATOM     47  C4  SGN d 902     -27.996  84.913  17.033  0.00  0.00     0.095 C 
ATOM     48  O5S SGN d 902     -25.256  86.833  21.433  0.00  0.00    -0.572 OA
ATOM     49  C2  SGN d 902     -30.454  85.188  17.046  0.00  0.00     0.081 C 
ATOM     50  S2  SGN d 902     -25.414  86.816  19.965  0.00  0.00     0.251 S 
ATOM     51  O3S SGN d 902     -33.322  85.888  18.184  0.00  0.00    -0.296 OA
ATOM     52  C6  SGN d 902     -26.866  84.572  19.240  0.00  0.00     0.067 C 
ATOM     53  O3  SGN d 902     -29.212  85.291  14.994  0.00  0.00    -0.391 OA
ATOM     54  O2S SGN d 902     -32.999  87.218  16.205  0.00  0.00    -0.296 OA
ATOM     55  O6S SGN d 902     -24.267  86.123  19.348  0.00  0.00    -0.572 OA
ATOM     56  C3  SGN d 902     -29.273  84.650  16.248  0.00  0.00     0.083 C 
ATOM     57  O5  SGN d 902     -29.252  84.727  19.089  0.00  0.00    -0.349 OA
ATOM     58  O1S SGN d 902     -34.311  85.200  16.097  0.00  0.00    -0.296 OA
ATOM     59  O4S SGN d 902     -25.486  88.200  19.457  0.00  0.00    -0.572 OA
ATOM     60  O4  SGN d 902     -26.886  84.382  16.308  0.00  0.00    -0.348 OA
ATOM     61  O1  SGN d 902     -30.779  83.116  18.237  0.00  0.00    -0.348 OA
ATOM     62  H   SGN d 902     -31.275  84.921  19.018  0.00  0.00     0.131 H 
ATOM     63  H   SGN d 902     -28.153  83.176  18.257  0.00  0.00     0.090 H 
ATOM     64  H   SGN d 902     -31.908  83.935  16.486  0.00  0.00     0.140 HD
ATOM     65  H   SGN d 902     -27.863  85.966  17.170  0.00  0.00     0.091 H 
ATOM     66  H   SGN d 902     -30.344  86.244  17.178  0.00  0.00     0.076 H 
ATOM     67  H   SGN d 902     -33.415  84.985  18.526  0.00  0.00     0.231 HD
ATOM     68  H   SGN d 902     -26.877  83.996  20.142  0.00  0.00     0.080 H 
ATOM     69  H   SGN d 902     -25.975  84.344  18.694  0.00  0.00     0.080 H 
ATOM     70  H   SGN d 902     -28.458  84.944  14.490  0.00  0.00     0.210 HD
ATOM     71  H   SGN d 902     -32.880  87.192  15.242  0.00  0.00     0.231 HD
ATOM     72  H   SGN d 902     -29.389  83.599  16.086  0.00  0.00     0.089 H 
ATOM     73  H   SGN d 902     -34.191  85.172  15.135  0.00  0.00     0.231 HD
ATOM     74  O4S SGN d 904     -37.739  79.942  18.379  0.00  0.00    -0.572 OA
ATOM     75  O5S SGN d 904     -38.562  79.765  20.638  0.00  0.00    -0.572 OA
ATOM     76  C3  SGN d 904     -32.393  77.011  19.683  0.00  0.00     0.083 C 
ATOM     77  N   SGN d 904     -32.134  74.738  18.912  0.00  0.00    -0.210 NA
ATOM     78  O5  SGN d 904     -34.994  76.292  20.582  0.00  0.00    -0.350 OA
ATOM     79  O6S SGN d 904     -36.659  81.160  20.164  0.00  0.00    -0.572 OA
ATOM     80  O3S SGN d 904     -33.610  73.898  16.908  0.00  0.00    -0.296 OA
ATOM     81  O4  SGN d 904     -32.760  79.171  20.612  0.00  0.00    -0.348 OA
ATOM     82  S2  SGN d 904     -37.358  79.911  19.804  0.00  0.00     0.251 S 
ATOM     83  O1  SGN d 904     -33.303  74.895  21.442  0.00  0.00    -0.369 OA
ATOM     84  O3  SGN d 904     -31.558  77.483  18.650  0.00  0.00    -0.391 OA
ATOM     85  O2S SGN d 904     -31.478  72.806  17.229  0.00  0.00    -0.296 OA
ATOM     86  C5  SGN d 904     -34.403  77.499  21.075  0.00  0.00     0.091 C 
ATOM     87  O6  SGN d 904     -36.288  78.546  20.094  0.00  0.00    -0.254 OA
ATOM     88  O1S SGN d 904     -33.306  72.375  18.752  0.00  0.00    -0.296 OA
ATOM     89  C1  SGN d 904     -34.055  75.255  20.280  0.00  0.00     0.147 C 
ATOM     90  C4  SGN d 904     -33.438  78.060  20.031  0.00  0.00     0.095 C 
ATOM     91  C2  SGN d 904     -33.106  75.761  19.202  0.00  0.00     0.081 C 
ATOM     92  C6  SGN d 904     -35.531  78.487  21.301  0.00  0.00     0.067 C 
ATOM     93  S1  SGN d 904     -32.652  73.390  17.907  0.00  0.00     0.156 S 
ATOM     94  H   SGN d 904     -31.798  76.799  20.547  0.00  0.00     0.089 H 
ATOM     95  H   SGN d 904     -31.820  74.352  19.803  0.00  0.00     0.140 HD
ATOM     96  H   SGN d 904     -33.177  74.565  16.354  0.00  0.00     0.231 HD
ATOM     97  H   SGN d 904     -33.906  74.572  22.130  0.00  0.00     0.212 HD
ATOM     98  H   SGN d 904     -32.093  77.677  17.865  0.00  0.00     0.210 HD
ATOM     99  H   SGN d 904     -31.055  73.481  16.675  0.00  0.00     0.231 HD
ATOM    100  H   SGN d 904     -33.863  77.317  21.980  0.00  0.00     0.090 H 
ATOM    101  H   SGN d 904     -34.075  72.768  19.193  0.00  0.00     0.231 HD
ATOM    102  H   SGN d 904     -34.584  74.390  19.941  0.00  0.00     0.131 H 
ATOM    103  H   SGN d 904     -33.979  78.343  19.153  0.00  0.00     0.091 H 
ATOM    104  H   SGN d 904     -33.665  75.996  18.321  0.00  0.00     0.076 H 
ATOM    105  H   SGN d 904     -35.131  79.453  21.530  0.00  0.00     0.080 H 
ATOM    106  H   SGN d 904     -36.145  78.181  22.121  0.00  0.00     0.080 H 
ENDROOT
TORSDOF 33
ENDMDL
MODEL 5
REMARK VINA RESULT:      -8.1      1.933      2.129
REMARK  0 active torsions:
REMARK  status: ('A' for Active; 'I' for Inactive)
REMARK       I    between atoms: C3_1  and  O3_18 
REMARK       I    between atoms: O6_3  and  C6_41 
REMARK       I    between atoms: O6_3  and  S2_27 
REMARK       I    between atoms: C1_4  and  O1_67 
REMARK       I    between atoms: O2_6  and  C2_60 
REMARK       I    between atoms: O2_6  and  S_64 
REMARK       I    between atoms: C5_7  and  C6_41 
REMARK       I    between atoms: C6_9  and  C5_36 
REMARK       I    between atoms: N_10  and  C2_26 
REMARK       I    between atoms: N_10  and  S1_14 
REMARK       I    between atoms: O2_12  and  C2_39 
REMARK       I    between atoms: O2_12  and  S_34 
REMARK       I    between atoms: C3_13  and  O3_44 
REMARK       I    between atoms: S1_14  and  O1S_57 
REMARK       I    between atoms: S1_14  and  O2S_48 
REMARK       I    between atoms: S1_14  and  O3S_38 
REMARK       I    between atoms: C6_16  and  C5_68 
REMARK       I    between atoms: C4_17  and  O4_62 
REMARK       I    between atoms: N_21  and  C2_65 
REMARK       I    between atoms: N_21  and  S1_69 
REMARK       I    between atoms: C3_25  and  O3_30 
REMARK       I    between atoms: O3S_29  and  S1_69 
REMARK       I    between atoms: O4_31  and  C1_42 
REMARK       I    between atoms: O4_31  and  C4_63 
REMARK       I    between atoms: S2_35  and  O6_49 
REMARK       I    between atoms: O1_37  and  C1_61 
REMARK       I    between atoms: O2S_45  and  S1_69 
REMARK       I    between atoms: O3_46  and  C3_55 
REMARK       I    between atoms: C5_47  and  C6_66 
REMARK       I    between atoms: O6_49  and  C6_66 
REMARK       I    between atoms: O1S_52  and  S1_69 
REMARK       I    between atoms: C1_54  and  O4_62 
REMARK       I    between atoms: C4_59  and  O1_67 
ROOT
ATOM      1  C3  UAP d 901     -33.066  74.615  21.679  0.00  0.00     0.086 C 
ATOM      2  O1S UAP d 901     -30.519  73.314  25.350  0.00  0.00    -0.572 OA
ATOM      3  C6  UAP d 901     -32.137  73.617  18.278  0.00  0.00     0.233 C 
ATOM      4  O2  UAP d 901     -31.034  74.289  22.937  0.00  0.00    -0.244 OA
ATOM      5  O3  UAP d 901     -34.096  75.557  21.890  0.00  0.00    -0.389 OA
ATOM      6  O61 UAP d 901     -33.263  73.249  17.870  0.00  0.00    -0.642 OA
ATOM      7  O5  UAP d 901     -30.810  74.466  19.972  0.00  0.00    -0.311 OA
ATOM      8  O2S UAP d 901     -32.668  74.351  25.026  0.00  0.00    -0.572 OA
ATOM      9  S   UAP d 901     -31.235  74.420  24.688  0.00  0.00     0.252 S 
ATOM     10  C5  UAP d 901     -32.014  74.081  19.521  0.00  0.00     0.147 C 
ATOM     11  C2  UAP d 901     -31.714  75.205  22.082  0.00  0.00     0.135 C 
ATOM     12  O62 UAP d 901     -31.125  73.548  17.548  0.00  0.00    -0.642 OA
ATOM     13  O3S UAP d 901     -30.684  75.709  25.147  0.00  0.00    -0.572 OA
ATOM     14  C4  UAP d 901     -33.102  74.144  20.310  0.00  0.00    -0.034 C 
ATOM     15  C1  UAP d 901     -30.828  75.553  20.894  0.00  0.00     0.167 C 
ATOM     16  H   UAP d 901     -33.218  73.760  22.303  0.00  0.00     0.093 H 
ATOM     17  H   UAP d 901     -33.950  76.328  21.321  0.00  0.00     0.210 HD
ATOM     18  H   UAP d 901     -31.915  76.123  22.593  0.00  0.00     0.097 H 
ATOM     19  H   UAP d 901     -34.008  73.841  19.919  0.00  0.00     0.085 H 
ATOM     20  H   UAP d 901     -29.825  75.723  21.224  0.00  0.00     0.134 H 
ATOM     21  O1S IDS d 903     -26.649  86.816  16.939  0.00  0.00    -0.572 OA
ATOM     22  O2  IDS d 903     -28.328  84.795  17.250  0.00  0.00    -0.244 OA
ATOM     23  O5  IDS d 903     -31.524  83.472  18.193  0.00  0.00    -0.340 OA
ATOM     24  C6  IDS d 903     -32.279  81.737  19.615  0.00  0.00     0.206 C 
ATOM     25  O2S IDS d 903     -27.229  86.211  19.202  0.00  0.00    -0.572 OA
ATOM     26  C3  IDS d 903     -29.080  82.602  17.778  0.00  0.00     0.094 C 
ATOM     27  O3S IDS d 903     -25.771  84.791  17.908  0.00  0.00    -0.572 OA
ATOM     28  O3  IDS d 903     -27.740  82.167  17.852  0.00  0.00    -0.390 OA
ATOM     29  O61 IDS d 903     -32.185  81.014  20.624  0.00  0.00    -0.646 OA
ATOM     30  C1  IDS d 903     -30.598  84.543  17.954  0.00  0.00     0.161 C 
ATOM     31  C4  IDS d 903     -29.927  81.811  18.783  0.00  0.00     0.103 C 
ATOM     32  C2  IDS d 903     -29.153  84.064  18.151  0.00  0.00     0.134 C 
ATOM     33  S   IDS d 903     -26.939  85.696  17.852  0.00  0.00     0.252 S 
ATOM     34  C5  IDS d 903     -31.116  82.647  19.274  0.00  0.00     0.152 C 
ATOM     35  O62 IDS d 903     -33.291  81.752  18.877  0.00  0.00    -0.646 OA
ATOM     36  H   IDS d 903     -29.445  82.453  16.784  0.00  0.00     0.091 H 
ATOM     37  H   IDS d 903     -27.407  82.302  18.753  0.00  0.00     0.210 HD
ATOM     38  H   IDS d 903     -30.736  84.887  16.950  0.00  0.00     0.133 H 
ATOM     39  H   IDS d 903     -29.307  81.552  19.616  0.00  0.00     0.092 H 
ATOM     40  H   IDS d 903     -28.837  84.208  19.163  0.00  0.00     0.097 H 
ATOM     41  H   IDS d 903     -30.834  83.216  20.136  0.00  0.00     0.104 H 
ATOM     42  O6  SGN d 902     -27.751  77.278  20.651  0.00  0.00    -0.254 OA
ATOM     43  C1  SGN d 902     -29.484  79.624  17.851  0.00  0.00     0.150 C 
ATOM     44  C5  SGN d 902     -29.688  78.526  19.999  0.00  0.00     0.091 C 
ATOM     45  N   SGN d 902     -30.901  78.944  15.997  0.00  0.00    -0.210 NA
ATOM     46  S1  SGN d 902     -30.019  79.275  14.500  0.00  0.00     0.156 S 
ATOM     47  C4  SGN d 902     -30.391  77.332  19.350  0.00  0.00     0.095 C 
ATOM     48  O5S SGN d 902     -25.747  76.732  22.286  0.00  0.00    -0.572 OA
ATOM     49  C2  SGN d 902     -30.183  78.458  17.158  0.00  0.00     0.081 C 
ATOM     50  S2  SGN d 902     -26.938  76.102  21.684  0.00  0.00     0.251 S 
ATOM     51  O3S SGN d 902     -28.811  80.065  14.803  0.00  0.00    -0.296 OA
ATOM     52  C6  SGN d 902     -28.830  78.058  21.166  0.00  0.00     0.067 C 
ATOM     53  O3  SGN d 902     -31.795  76.711  17.500  0.00  0.00    -0.391 OA
ATOM     54  O2S SGN d 902     -29.625  78.000  13.873  0.00  0.00    -0.296 OA
ATOM     55  O6S SGN d 902     -27.862  75.663  22.747  0.00  0.00    -0.572 OA
ATOM     56  C3  SGN d 902     -31.162  77.804  18.125  0.00  0.00     0.083 C 
ATOM     57  O5  SGN d 902     -28.826  79.145  19.032  0.00  0.00    -0.349 OA
ATOM     58  O1S SGN d 902     -30.886  80.032  13.578  0.00  0.00    -0.296 OA
ATOM     59  O4S SGN d 902     -26.529  74.937  20.875  0.00  0.00    -0.572 OA
ATOM     60  O4  SGN d 902     -31.306  76.749  20.279  0.00  0.00    -0.348 OA
ATOM     61  O1  SGN d 902     -30.443  80.643  18.142  0.00  0.00    -0.348 OA
ATOM     62  H   SGN d 902     -28.739  80.053  17.215  0.00  0.00     0.131 H 
ATOM     63  H   SGN d 902     -30.429  79.216  20.347  0.00  0.00     0.090 H 
ATOM     64  H   SGN d 902     -31.354  79.815  16.273  0.00  0.00     0.140 HD
ATOM     65  H   SGN d 902     -29.660  76.606  19.063  0.00  0.00     0.091 H 
ATOM     66  H   SGN d 902     -29.454  77.739  16.848  0.00  0.00     0.076 H 
ATOM     67  H   SGN d 902     -29.068  80.904  15.215  0.00  0.00     0.231 HD
ATOM     68  H   SGN d 902     -28.443  78.905  21.693  0.00  0.00     0.080 H 
ATOM     69  H   SGN d 902     -29.417  77.470  21.840  0.00  0.00     0.080 H 
ATOM     70  H   SGN d 902     -32.416  76.299  18.121  0.00  0.00     0.210 HD
ATOM     71  H   SGN d 902     -30.418  77.479  13.673  0.00  0.00     0.231 HD
ATOM     72  H   SGN d 902     -31.912  78.508  18.418  0.00  0.00     0.089 H 
ATOM     73  H   SGN d 902     -31.680  79.511  13.380  0.00  0.00     0.231 HD
ATOM     74  O4S SGN d 904     -32.106  86.597  13.634  0.00  0.00    -0.572 OA
ATOM     75  O5S SGN d 904     -30.378  88.275  13.745  0.00  0.00    -0.572 OA
ATOM     76  C3  SGN d 904     -32.864  86.414  19.820  0.00  0.00     0.083 C 
ATOM     77  N   SGN d 904     -34.833  87.457  20.749  0.00  0.00    -0.210 NA
ATOM     78  O5  SGN d 904     -32.527  88.736  18.213  0.00  0.00    -0.350 OA
ATOM     79  O6S SGN d 904     -29.962  86.069  14.614  0.00  0.00    -0.572 OA
ATOM     80  O3S SGN d 904     -36.924  87.829  19.203  0.00  0.00    -0.296 OA
ATOM     81  O4  SGN d 904     -30.833  85.583  18.900  0.00  0.00    -0.348 OA
ATOM     82  S2  SGN d 904     -30.981  87.121  14.432  0.00  0.00     0.251 S 
ATOM     83  O1  SGN d 904     -32.683  89.222  20.513  0.00  0.00    -0.369 OA
ATOM     84  O3  SGN d 904     -33.429  85.134  19.993  0.00  0.00    -0.391 OA
ATOM     85  O2S SGN d 904     -37.341  87.604  21.573  0.00  0.00    -0.296 OA
ATOM     86  C5  SGN d 904     -31.424  87.836  18.364  0.00  0.00     0.091 C 
ATOM     87  O6  SGN d 904     -31.569  87.634  16.008  0.00  0.00    -0.254 OA
ATOM     88  O1S SGN d 904     -36.343  89.625  20.701  0.00  0.00    -0.296 OA
ATOM     89  C1  SGN d 904     -33.397  88.799  19.348  0.00  0.00     0.147 C 
ATOM     90  C4  SGN d 904     -31.948  86.420  18.606  0.00  0.00     0.095 C 
ATOM     91  C2  SGN d 904     -33.980  87.414  19.588  0.00  0.00     0.081 C 
ATOM     92  C6  SGN d 904     -30.642  87.868  17.066  0.00  0.00     0.067 C 
ATOM     93  S1  SGN d 904     -36.433  88.162  20.552  0.00  0.00     0.156 S 
ATOM     94  H   SGN d 904     -32.301  86.670  20.693  0.00  0.00     0.089 H 
ATOM     95  H   SGN d 904     -34.347  87.995  21.466  0.00  0.00     0.140 HD
ATOM     96  H   SGN d 904     -36.983  86.866  19.109  0.00  0.00     0.231 HD
ATOM     97  H   SGN d 904     -32.311  90.105  20.362  0.00  0.00     0.212 HD
ATOM     98  H   SGN d 904     -33.940  84.897  19.204  0.00  0.00     0.210 HD
ATOM     99  H   SGN d 904     -37.395  86.640  21.467  0.00  0.00     0.231 HD
ATOM    100  H   SGN d 904     -30.809  88.121  19.191  0.00  0.00     0.090 H 
ATOM    101  H   SGN d 904     -35.744  89.983  20.027  0.00  0.00     0.231 HD
ATOM    102  H   SGN d 904     -34.174  89.508  19.154  0.00  0.00     0.131 H 
ATOM    103  H   SGN d 904     -32.481  86.080  17.743  0.00  0.00     0.091 H 
ATOM    104  H   SGN d 904     -34.544  87.115  18.730  0.00  0.00     0.076 H 
ATOM    105  H   SGN d 904     -29.891  87.105  17.071  0.00  0.00     0.080 H 
ATOM    106  H   SGN d 904     -30.152  88.811  16.941  0.00  0.00     0.080 H 
ENDROOT
TORSDOF 33
ENDMDL
MODEL 6
REMARK VINA RESULT:      -8.0      4.912     10.885
REMARK  0 active torsions:
REMARK  status: ('A' for Active; 'I' for Inactive)
REMARK       I    between atoms: C3_1  and  O3_18 
REMARK       I    between atoms: O6_3  and  C6_41 
REMARK       I    between atoms: O6_3  and  S2_27 
REMARK       I    between atoms: C1_4  and  O1_67 
REMARK       I    between atoms: O2_6  and  C2_60 
REMARK       I    between atoms: O2_6  and  S_64 
REMARK       I    between atoms: C5_7  and  C6_41 
REMARK       I    between atoms: C6_9  and  C5_36 
REMARK       I    between atoms: N_10  and  C2_26 
REMARK       I    between atoms: N_10  and  S1_14 
REMARK       I    between atoms: O2_12  and  C2_39 
REMARK       I    between atoms: O2_12  and  S_34 
REMARK       I    between atoms: C3_13  and  O3_44 
REMARK       I    between atoms: S1_14  and  O1S_57 
REMARK       I    between atoms: S1_14  and  O2S_48 
REMARK       I    between atoms: S1_14  and  O3S_38 
REMARK       I    between atoms: C6_16  and  C5_68 
REMARK       I    between atoms: C4_17  and  O4_62 
REMARK       I    between atoms: N_21  and  C2_65 
REMARK       I    between atoms: N_21  and  S1_69 
REMARK       I    between atoms: C3_25  and  O3_30 
REMARK       I    between atoms: O3S_29  and  S1_69 
REMARK       I    between atoms: O4_31  and  C1_42 
REMARK       I    between atoms: O4_31  and  C4_63 
REMARK       I    between atoms: S2_35  and  O6_49 
REMARK       I    between atoms: O1_37  and  C1_61 
REMARK       I    between atoms: O2S_45  and  S1_69 
REMARK       I    between atoms: O3_46  and  C3_55 
REMARK       I    between atoms: C5_47  and  C6_66 
REMARK       I    between atoms: O6_49  and  C6_66 
REMARK       I    between atoms: O1S_52  and  S1_69 
REMARK       I    between atoms: C1_54  and  O4_62 
REMARK       I    between atoms: C4_59  and  O1_67 
ROOT
ATOM      1  C3  UAP d 901     -21.115  84.120  20.974  0.00  0.00     0.086 C 
ATOM      2  O1S UAP d 901     -21.284  86.836  24.749  0.00  0.00    -0.572 OA
ATOM      3  C6  UAP d 901     -20.807  85.557  17.617  0.00  0.00     0.233 C 
ATOM      4  O2  UAP d 901     -21.883  85.974  22.313  0.00  0.00    -0.244 OA
ATOM      5  O3  UAP d 901     -21.373  82.742  21.140  0.00  0.00    -0.389 OA
ATOM      6  O61 UAP d 901     -19.911  84.807  17.168  0.00  0.00    -0.642 OA
ATOM      7  O5  UAP d 901     -22.200  86.178  19.357  0.00  0.00    -0.311 OA
ATOM      8  O2S UAP d 901     -21.044  84.476  24.336  0.00  0.00    -0.572 OA
ATOM      9  S   UAP d 901     -21.861  85.671  24.054  0.00  0.00     0.252 S 
ATOM     10  C5  UAP d 901     -21.247  85.373  18.863  0.00  0.00     0.147 C 
ATOM     11  C2  UAP d 901     -22.320  84.945  21.427  0.00  0.00     0.135 C 
ATOM     12  O62 UAP d 901     -21.292  86.480  16.929  0.00  0.00    -0.642 OA
ATOM     13  O3S UAP d 901     -23.239  85.446  24.528  0.00  0.00    -0.572 OA
ATOM     14  C4  UAP d 901     -20.717  84.386  19.607  0.00  0.00    -0.034 C 
ATOM     15  C1  UAP d 901     -23.100  85.559  20.273  0.00  0.00     0.167 C 
ATOM     16  H   UAP d 901     -20.297  84.418  21.596  0.00  0.00     0.093 H 
ATOM     17  H   UAP d 901     -22.115  82.482  20.573  0.00  0.00     0.210 HD
ATOM     18  H   UAP d 901     -22.987  84.274  21.925  0.00  0.00     0.097 H 
ATOM     19  H   UAP d 901     -19.990  83.789  19.183  0.00  0.00     0.085 H 
ATOM     20  H   UAP d 901     -23.766  86.311  20.641  0.00  0.00     0.134 H 
ATOM     21  O1S IDS d 903     -34.943  83.341  16.427  0.00  0.00    -0.572 OA
ATOM     22  O2  IDS d 903     -32.336  82.963  16.682  0.00  0.00    -0.244 OA
ATOM     23  O5  IDS d 903     -29.518  80.906  17.506  0.00  0.00    -0.340 OA
ATOM     24  C6  IDS d 903     -27.622  81.124  18.906  0.00  0.00     0.206 C 
ATOM     25  O2S IDS d 903     -34.087  83.084  18.668  0.00  0.00    -0.572 OA
ATOM     26  C3  IDS d 903     -30.067  83.456  17.191  0.00  0.00     0.094 C 
ATOM     27  O3S IDS d 903     -33.665  85.116  17.440  0.00  0.00    -0.572 OA
ATOM     28  O3  IDS d 903     -30.399  84.821  17.320  0.00  0.00    -0.390 OA
ATOM     29  O61 IDS d 903     -27.040  81.548  19.922  0.00  0.00    -0.646 OA
ATOM     30  C1  IDS d 903     -30.919  81.140  17.298  0.00  0.00     0.161 C 
ATOM     31  C4  IDS d 903     -28.933  83.115  18.166  0.00  0.00     0.103 C 
ATOM     32  C2  IDS d 903     -31.267  82.613  17.554  0.00  0.00     0.134 C 
ATOM     33  S   IDS d 903     -33.823  83.650  17.333  0.00  0.00     0.252 S 
ATOM     34  C5  IDS d 903     -29.013  81.647  18.606  0.00  0.00     0.152 C 
ATOM     35  O62 IDS d 903     -27.116  80.283  18.129  0.00  0.00    -0.646 OA
ATOM     36  H   IDS d 903     -29.765  83.260  16.184  0.00  0.00     0.091 H 
ATOM     37  H   IDS d 903     -30.674  85.002  18.232  0.00  0.00     0.210 HD
ATOM     38  H   IDS d 903     -31.155  80.878  16.287  0.00  0.00     0.133 H 
ATOM     39  H   IDS d 903     -29.025  83.749  19.024  0.00  0.00     0.092 H 
ATOM     40  H   IDS d 903     -31.539  82.769  18.576  0.00  0.00     0.097 H 
ATOM     41  H   IDS d 903     -29.630  81.558  19.475  0.00  0.00     0.104 H 
ATOM     42  O6  SGN d 902     -26.187  87.278  20.142  0.00  0.00    -0.254 OA
ATOM     43  C1  SGN d 902     -27.320  84.674  17.264  0.00  0.00     0.150 C 
ATOM     44  C5  SGN d 902     -26.243  84.999  19.408  0.00  0.00     0.091 C 
ATOM     45  N   SGN d 902     -26.027  83.893  15.359  0.00  0.00    -0.210 NA
ATOM     46  S1  SGN d 902     -26.796  84.523  13.896  0.00  0.00     0.156 S 
ATOM     47  C4  SGN d 902     -24.869  85.052  18.738  0.00  0.00     0.095 C 
ATOM     48  O5S SGN d 902     -26.748  89.210  21.857  0.00  0.00    -0.572 OA
ATOM     49  C2  SGN d 902     -25.971  84.717  16.550  0.00  0.00     0.081 C 
ATOM     50  S2  SGN d 902     -25.596  88.550  21.212  0.00  0.00     0.251 S 
ATOM     51  O3S SGN d 902     -28.097  85.125  14.242  0.00  0.00    -0.296 OA
ATOM     52  C6  SGN d 902     -26.276  85.933  20.610  0.00  0.00     0.067 C 
ATOM     53  O3  SGN d 902     -23.633  84.251  16.838  0.00  0.00    -0.391 OA
ATOM     54  O2S SGN d 902     -25.928  85.550  13.292  0.00  0.00    -0.296 OA
ATOM     55  O6S SGN d 902     -24.720  87.956  22.241  0.00  0.00    -0.572 OA
ATOM     56  C3  SGN d 902     -24.886  84.193  17.481  0.00  0.00     0.083 C 
ATOM     57  O5  SGN d 902     -27.238  85.442  18.472  0.00  0.00    -0.349 OA
ATOM     58  O1S SGN d 902     -27.000  83.422  12.938  0.00  0.00    -0.296 OA
ATOM     59  O4S SGN d 902     -24.833  89.538  20.426  0.00  0.00    -0.572 OA
ATOM     60  O4  SGN d 902     -23.877  84.547  19.634  0.00  0.00    -0.348 OA
ATOM     61  O1  SGN d 902     -27.679  83.313  17.512  0.00  0.00    -0.348 OA
ATOM     62  H   SGN d 902     -28.086  85.105  16.655  0.00  0.00     0.131 H 
ATOM     63  H   SGN d 902     -26.436  83.995  19.723  0.00  0.00     0.090 H 
ATOM     64  H   SGN d 902     -26.526  83.040  15.613  0.00  0.00     0.140 HD
ATOM     65  H   SGN d 902     -24.639  86.066  18.483  0.00  0.00     0.091 H 
ATOM     66  H   SGN d 902     -25.747  85.726  16.273  0.00  0.00     0.076 H 
ATOM     67  H   SGN d 902     -28.670  84.451  14.640  0.00  0.00     0.231 HD
ATOM     68  H   SGN d 902     -27.192  85.798  21.147  0.00  0.00     0.080 H 
ATOM     69  H   SGN d 902     -25.457  85.718  21.264  0.00  0.00     0.080 H 
ATOM     70  H   SGN d 902     -22.947  83.917  17.436  0.00  0.00     0.210 HD
ATOM     71  H   SGN d 902     -25.071  85.157  13.063  0.00  0.00     0.231 HD
ATOM     72  H   SGN d 902     -25.087  83.175  17.741  0.00  0.00     0.089 H 
ATOM     73  H   SGN d 902     -26.143  83.027  12.711  0.00  0.00     0.231 HD
ATOM     74  O4S SGN d 904     -31.946  78.935  12.911  0.00  0.00    -0.572 OA
ATOM     75  O5S SGN d 904     -34.279  79.520  13.081  0.00  0.00    -0.572 OA
ATOM     76  C3  SGN d 904     -31.292  78.164  19.064  0.00  0.00     0.083 C 
ATOM     77  N   SGN d 904     -31.131  75.908  19.909  0.00  0.00    -0.210 NA
ATOM     78  O5  SGN d 904     -33.471  77.289  17.459  0.00  0.00    -0.350 OA
ATOM     79  O6S SGN d 904     -32.606  81.000  13.978  0.00  0.00    -0.572 OA
ATOM     80  O3S SGN d 904     -30.375  73.990  18.281  0.00  0.00    -0.296 OA
ATOM     81  O4  SGN d 904     -31.666  80.360  18.228  0.00  0.00    -0.348 OA
ATOM     82  S2  SGN d 904     -32.970  79.588  13.750  0.00  0.00     0.251 S 
ATOM     83  O1  SGN d 904     -33.765  76.818  19.749  0.00  0.00    -0.369 OA
ATOM     84  O3  SGN d 904     -29.903  78.349  19.221  0.00  0.00    -0.391 OA
ATOM     85  O2S SGN d 904     -29.926  73.668  20.633  0.00  0.00    -0.296 OA
ATOM     86  C5  SGN d 904     -33.282  78.693  17.658  0.00  0.00     0.091 C 
ATOM     87  O6  SGN d 904     -33.072  78.761  15.299  0.00  0.00    -0.254 OA
ATOM     88  O1S SGN d 904     -32.185  73.488  19.791  0.00  0.00    -0.296 OA
ATOM     89  C1  SGN d 904     -33.050  76.475  18.558  0.00  0.00     0.147 C 
ATOM     90  C4  SGN d 904     -31.798  78.983  17.886  0.00  0.00     0.095 C 
ATOM     91  C2  SGN d 904     -31.561  76.698  18.783  0.00  0.00     0.081 C 
ATOM     92  C6  SGN d 904     -33.741  79.389  16.391  0.00  0.00     0.067 C 
ATOM     93  S1  SGN d 904     -30.895  74.185  19.646  0.00  0.00     0.156 S 
ATOM     94  H   SGN d 904     -31.791  78.476  19.957  0.00  0.00     0.089 H 
ATOM     95  H   SGN d 904     -31.833  76.013  20.642  0.00  0.00     0.140 HD
ATOM     96  H   SGN d 904     -29.526  74.450  18.189  0.00  0.00     0.231 HD
ATOM     97  H   SGN d 904     -34.714  76.676  19.608  0.00  0.00     0.212 HD
ATOM     98  H   SGN d 904     -29.446  78.067  18.414  0.00  0.00     0.210 HD
ATOM     99  H   SGN d 904     -29.080  74.133  20.530  0.00  0.00     0.231 HD
ATOM    100  H   SGN d 904     -33.834  79.037  18.507  0.00  0.00     0.090 H 
ATOM    101  H   SGN d 904     -32.815  73.834  19.139  0.00  0.00     0.231 HD
ATOM    102  H   SGN d 904     -33.249  75.449  18.331  0.00  0.00     0.131 H 
ATOM    103  H   SGN d 904     -31.242  78.739  17.005  0.00  0.00     0.091 H 
ATOM    104  H   SGN d 904     -31.024  76.406  17.905  0.00  0.00     0.076 H 
ATOM    105  H   SGN d 904     -33.485  80.427  16.430  0.00  0.00     0.080 H 
ATOM    106  H   SGN d 904     -34.802  79.314  16.280  0.00  0.00     0.080 H 
ENDROOT
TORSDOF 33
ENDMDL
MODEL 7
REMARK VINA RESULT:      -8.0      5.487      8.579
REMARK  0 active torsions:
REMARK  status: ('A' for Active; 'I' for Inactive)
REMARK       I    between atoms: C3_1  and  O3_18 
REMARK       I    between atoms: O6_3  and  C6_41 
REMARK       I    between atoms: O6_3  and  S2_27 
REMARK       I    between atoms: C1_4  and  O1_67 
REMARK       I    between atoms: O2_6  and  C2_60 
REMARK       I    between atoms: O2_6  and  S_64 
REMARK       I    between atoms: C5_7  and  C6_41 
REMARK       I    between atoms: C6_9  and  C5_36 
REMARK       I    between atoms: N_10  and  C2_26 
REMARK       I    between atoms: N_10  and  S1_14 
REMARK       I    between atoms: O2_12  and  C2_39 
REMARK       I    between atoms: O2_12  and  S_34 
REMARK       I    between atoms: C3_13  and  O3_44 
REMARK       I    between atoms: S1_14  and  O1S_57 
REMARK       I    between atoms: S1_14  and  O2S_48 
REMARK       I    between atoms: S1_14  and  O3S_38 
REMARK       I    between atoms: C6_16  and  C5_68 
REMARK       I    between atoms: C4_17  and  O4_62 
REMARK       I    between atoms: N_21  and  C2_65 
REMARK       I    between atoms: N_21  and  S1_69 
REMARK       I    between atoms: C3_25  and  O3_30 
REMARK       I    between atoms: O3S_29  and  S1_69 
REMARK       I    between atoms: O4_31  and  C1_42 
REMARK       I    between atoms: O4_31  and  C4_63 
REMARK       I    between atoms: S2_35  and  O6_49 
REMARK       I    between atoms: O1_37  and  C1_61 
REMARK       I    between atoms: O2S_45  and  S1_69 
REMARK       I    between atoms: O3_46  and  C3_55 
REMARK       I    between atoms: C5_47  and  C6_66 
REMARK       I    between atoms: O6_49  and  C6_66 
REMARK       I    between atoms: O1S_52  and  S1_69 
REMARK       I    between atoms: C1_54  and  O4_62 
REMARK       I    between atoms: C4_59  and  O1_67 
ROOT
ATOM      1  C3  UAP d 901     -35.764  76.840  18.861  0.00  0.00     0.086 C 
ATOM      2  O1S UAP d 901     -38.840  79.271  21.368  0.00  0.00    -0.572 OA
ATOM      3  C6  UAP d 901     -34.251  73.771  20.173  0.00  0.00     0.233 C 
ATOM      4  O2  UAP d 901     -36.607  77.942  20.834  0.00  0.00    -0.244 OA
ATOM      5  O3  UAP d 901     -35.288  77.414  17.662  0.00  0.00    -0.389 OA
ATOM      6  O61 UAP d 901     -34.387  73.042  19.164  0.00  0.00    -0.642 OA
ATOM      7  O5  UAP d 901     -34.551  75.819  21.208  0.00  0.00    -0.311 OA
ATOM      8  O2S UAP d 901     -38.066  79.306  19.088  0.00  0.00    -0.572 OA
ATOM      9  S   UAP d 901     -37.648  79.330  20.501  0.00  0.00     0.252 S 
ATOM     10  C5  UAP d 901     -34.681  75.033  20.129  0.00  0.00     0.147 C 
ATOM     11  C2  UAP d 901     -35.433  77.742  20.050  0.00  0.00     0.135 C 
ATOM     12  O62 UAP d 901     -33.731  73.340  21.225  0.00  0.00    -0.642 OA
ATOM     13  O3S UAP d 901     -36.904  80.575  20.772  0.00  0.00    -0.572 OA
ATOM     14  C4  UAP d 901     -35.250  75.493  19.000  0.00  0.00    -0.034 C 
ATOM     15  C1  UAP d 901     -34.315  77.197  20.929  0.00  0.00     0.167 C 
ATOM     16  H   UAP d 901     -36.830  76.761  18.832  0.00  0.00     0.093 H 
ATOM     17  H   UAP d 901     -34.322  77.481  17.697  0.00  0.00     0.210 HD
ATOM     18  H   UAP d 901     -35.082  78.669  19.650  0.00  0.00     0.097 H 
ATOM     19  H   UAP d 901     -35.325  74.854  18.194  0.00  0.00     0.085 H 
ATOM     20  H   UAP d 901     -34.293  77.723  21.860  0.00  0.00     0.134 H 
ATOM     21  O1S IDS d 903     -22.776  81.862  23.173  0.00  0.00    -0.572 OA
ATOM     22  O2  IDS d 903     -24.688  80.563  21.885  0.00  0.00    -0.244 OA
ATOM     23  O5  IDS d 903     -26.630  79.928  18.939  0.00  0.00    -0.340 OA
ATOM     24  C6  IDS d 903     -28.939  79.813  18.433  0.00  0.00     0.206 C 
ATOM     25  O2S IDS d 903     -24.744  83.122  22.574  0.00  0.00    -0.572 OA
ATOM     26  C3  IDS d 903     -26.773  79.480  21.524  0.00  0.00     0.094 C 
ATOM     27  O3S IDS d 903     -24.846  81.494  24.351  0.00  0.00    -0.572 OA
ATOM     28  O3  IDS d 903     -27.013  79.492  22.914  0.00  0.00    -0.390 OA
ATOM     29  O61 IDS d 903     -30.126  80.153  18.597  0.00  0.00    -0.646 OA
ATOM     30  C1  IDS d 903     -25.565  80.565  19.662  0.00  0.00     0.161 C 
ATOM     31  C4  IDS d 903     -28.106  79.617  20.778  0.00  0.00     0.103 C 
ATOM     32  C2  IDS d 903     -25.906  80.661  21.156  0.00  0.00     0.134 C 
ATOM     33  S   IDS d 903     -24.243  81.817  23.041  0.00  0.00     0.252 S 
ATOM     34  C5  IDS d 903     -27.907  80.312  19.425  0.00  0.00     0.152 C 
ATOM     35  O62 IDS d 903     -28.560  79.088  17.485  0.00  0.00    -0.646 OA
ATOM     36  H   IDS d 903     -26.288  78.565  21.257  0.00  0.00     0.091 H 
ATOM     37  H   IDS d 903     -27.452  80.321  23.159  0.00  0.00     0.210 HD
ATOM     38  H   IDS d 903     -24.676  79.987  19.526  0.00  0.00     0.133 H 
ATOM     39  H   IDS d 903     -28.772  80.197  21.381  0.00  0.00     0.092 H 
ATOM     40  H   IDS d 903     -26.412  81.578  21.374  0.00  0.00     0.097 H 
ATOM     41  H   IDS d 903     -27.997  81.372  19.540  0.00  0.00     0.104 H 
ATOM     42  O6  SGN d 902     -32.527  78.598  23.639  0.00  0.00    -0.254 OA
ATOM     43  C1  SGN d 902     -29.129  77.620  21.680  0.00  0.00     0.150 C 
ATOM     44  C5  SGN d 902     -31.361  78.548  21.548  0.00  0.00     0.091 C 
ATOM     45  N   SGN d 902     -28.607  75.540  20.535  0.00  0.00    -0.210 NA
ATOM     46  S1  SGN d 902     -27.306  74.747  21.433  0.00  0.00     0.156 S 
ATOM     47  C4  SGN d 902     -31.927  77.192  21.123  0.00  0.00     0.095 C 
ATOM     48  O5S SGN d 902     -33.782  79.847  25.602  0.00  0.00    -0.572 OA
ATOM     49  C2  SGN d 902     -29.646  76.247  21.256  0.00  0.00     0.081 C 
ATOM     50  S2  SGN d 902     -34.000  78.795  24.590  0.00  0.00     0.251 S 
ATOM     51  O3S SGN d 902     -26.773  75.672  22.450  0.00  0.00    -0.296 OA
ATOM     52  C6  SGN d 902     -32.375  79.295  22.404  0.00  0.00     0.067 C 
ATOM     53  O3  SGN d 902     -31.362  75.154  19.981  0.00  0.00    -0.391 OA
ATOM     54  O2S SGN d 902     -27.834  73.541  22.097  0.00  0.00    -0.296 OA
ATOM     55  O6S SGN d 902     -35.110  79.182  23.699  0.00  0.00    -0.572 OA
ATOM     56  C3  SGN d 902     -30.864  76.418  20.357  0.00  0.00     0.083 C 
ATOM     57  O5  SGN d 902     -30.181  78.337  22.340  0.00  0.00    -0.349 OA
ATOM     58  O1S SGN d 902     -26.229  74.366  20.500  0.00  0.00    -0.296 OA
ATOM     59  O4S SGN d 902     -34.326  77.522  25.260  0.00  0.00    -0.572 OA
ATOM     60  O4  SGN d 902     -33.061  77.388  20.277  0.00  0.00    -0.348 OA
ATOM     61  O1  SGN d 902     -28.639  78.314  20.531  0.00  0.00    -0.348 OA
ATOM     62  H   SGN d 902     -28.318  77.524  22.370  0.00  0.00     0.131 H 
ATOM     63  H   SGN d 902     -31.135  79.119  20.671  0.00  0.00     0.090 H 
ATOM     64  H   SGN d 902     -28.167  76.216  19.910  0.00  0.00     0.140 HD
ATOM     65  H   SGN d 902     -32.220  76.644  21.994  0.00  0.00     0.091 H 
ATOM     66  H   SGN d 902     -29.919  75.686  22.125  0.00  0.00     0.076 H 
ATOM     67  H   SGN d 902     -26.424  76.466  22.016  0.00  0.00     0.231 HD
ATOM     68  H   SGN d 902     -32.027  80.290  22.591  0.00  0.00     0.080 H 
ATOM     69  H   SGN d 902     -33.315  79.349  21.894  0.00  0.00     0.080 H 
ATOM     70  H   SGN d 902     -32.137  75.270  19.409  0.00  0.00     0.210 HD
ATOM     71  H   SGN d 902     -28.185  72.931  21.429  0.00  0.00     0.231 HD
ATOM     72  H   SGN d 902     -30.593  76.953  19.472  0.00  0.00     0.089 H 
ATOM     73  H   SGN d 902     -26.582  73.757  19.831  0.00  0.00     0.231 HD
ATOM     74  O4S SGN d 904     -21.393  78.280  18.074  0.00  0.00    -0.572 OA
ATOM     75  O5S SGN d 904     -20.007  79.696  19.448  0.00  0.00    -0.572 OA
ATOM     76  C3  SGN d 904     -25.570  82.775  16.973  0.00  0.00     0.083 C 
ATOM     77  N   SGN d 904     -25.574  83.804  14.789  0.00  0.00    -0.210 NA
ATOM     78  O5  SGN d 904     -22.738  83.043  16.971  0.00  0.00    -0.350 OA
ATOM     79  O6S SGN d 904     -22.200  79.062  20.212  0.00  0.00    -0.572 OA
ATOM     80  O3S SGN d 904     -24.519  82.500  12.767  0.00  0.00    -0.296 OA
ATOM     81  O4  SGN d 904     -25.403  81.896  19.178  0.00  0.00    -0.348 OA
ATOM     82  S2  SGN d 904     -21.388  79.405  19.029  0.00  0.00     0.251 S 
ATOM     83  O1  SGN d 904     -23.857  85.080  16.582  0.00  0.00    -0.369 OA
ATOM     84  O3  SGN d 904     -26.714  82.018  16.647  0.00  0.00    -0.391 OA
ATOM     85  O2S SGN d 904     -26.250  84.105  12.250  0.00  0.00    -0.296 OA
ATOM     86  C5  SGN d 904     -23.406  82.785  18.211  0.00  0.00     0.091 C 
ATOM     87  O6  SGN d 904     -22.067  80.831  18.256  0.00  0.00    -0.254 OA
ATOM     88  O1S SGN d 904     -24.050  84.860  12.907  0.00  0.00    -0.296 OA
ATOM     89  C1  SGN d 904     -23.506  83.805  16.035  0.00  0.00     0.147 C 
ATOM     90  C4  SGN d 904     -24.693  82.004  17.947  0.00  0.00     0.095 C 
ATOM     91  C2  SGN d 904     -24.776  83.031  15.707  0.00  0.00     0.081 C 
ATOM     92  C6  SGN d 904     -22.469  81.942  19.055  0.00  0.00     0.067 C 
ATOM     93  S1  SGN d 904     -25.078  83.822  13.101  0.00  0.00     0.156 S 
ATOM     94  H   SGN d 904     -25.875  83.698  17.421  0.00  0.00     0.089 H 
ATOM     95  H   SGN d 904     -25.573  84.769  15.119  0.00  0.00     0.140 HD
ATOM     96  H   SGN d 904     -25.198  81.820  12.896  0.00  0.00     0.231 HD
ATOM     97  H   SGN d 904     -23.049  85.575  16.791  0.00  0.00     0.212 HD
ATOM     98  H   SGN d 904     -26.442  81.181  16.240  0.00  0.00     0.210 HD
ATOM     99  H   SGN d 904     -26.921  83.417  12.384  0.00  0.00     0.231 HD
ATOM    100  H   SGN d 904     -23.655  83.699  18.708  0.00  0.00     0.090 H 
ATOM    101  H   SGN d 904     -23.284  84.667  13.470  0.00  0.00     0.231 HD
ATOM    102  H   SGN d 904     -22.924  83.967  15.153  0.00  0.00     0.131 H 
ATOM    103  H   SGN d 904     -24.456  81.042  17.542  0.00  0.00     0.091 H 
ATOM    104  H   SGN d 904     -24.513  82.094  15.264  0.00  0.00     0.076 H 
ATOM    105  H   SGN d 904     -22.976  81.598  19.932  0.00  0.00     0.080 H 
ATOM    106  H   SGN d 904     -21.621  82.514  19.366  0.00  0.00     0.080 H 
ENDROOT
TORSDOF 33
ENDMDL
MODEL 8
REMARK VINA RESULT:      -8.0      3.616     11.365
REMARK  0 active torsions:
REMARK  status: ('A' for Active; 'I' for Inactive)
REMARK       I    between atoms: C3_1  and  O3_18 
REMARK       I    between atoms: O6_3  and  C6_41 
REMARK       I    between atoms: O6_3  and  S2_27 
REMARK       I    between atoms: C1_4  and  O1_67 
REMARK       I    between atoms: O2_6  and  C2_60 
REMARK       I    between atoms: O2_6  and  S_64 
REMARK       I    between atoms: C5_7  and  C6_41 
REMARK       I    between atoms: C6_9  and  C5_36 
REMARK       I    between atoms: N_10  and  C2_26 
REMARK       I    between atoms: N_10  and  S1_14 
REMARK       I    between atoms: O2_12  and  C2_39 
REMARK       I    between atoms: O2_12  and  S_34 
REMARK       I    between atoms: C3_13  and  O3_44 
REMARK       I    between atoms: S1_14  and  O1S_57 
REMARK       I    between atoms: S1_14  and  O2S_48 
REMARK       I    between atoms: S1_14  and  O3S_38 
REMARK       I    between atoms: C6_16  and  C5_68 
REMARK       I    between atoms: C4_17  and  O4_62 
REMARK       I    between atoms: N_21  and  C2_65 
REMARK       I    between atoms: N_21  and  S1_69 
REMARK       I    between atoms: C3_25  and  O3_30 
REMARK       I    between atoms: O3S_29  and  S1_69 
REMARK       I    between atoms: O4_31  and  C1_42 
REMARK       I    between atoms: O4_31  and  C4_63 
REMARK       I    between atoms: S2_35  and  O6_49 
REMARK       I    between atoms: O1_37  and  C1_61 
REMARK       I    between atoms: O2S_45  and  S1_69 
REMARK       I    between atoms: O3_46  and  C3_55 
REMARK       I    between atoms: C5_47  and  C6_66 
REMARK       I    between atoms: O6_49  and  C6_66 
REMARK       I    between atoms: O1S_52  and  S1_69 
REMARK       I    between atoms: C1_54  and  O4_62 
REMARK       I    between atoms: C4_59  and  O1_67 
ROOT
ATOM      1  C3  UAP d 901     -25.714  84.974  13.173  0.00  0.00     0.086 C 
ATOM      2  O1S UAP d 901     -21.533  85.899  14.997  0.00  0.00    -0.572 OA
ATOM      3  C6  UAP d 901     -28.298  87.562  12.945  0.00  0.00     0.233 C 
ATOM      4  O2  UAP d 901     -24.180  85.851  14.815  0.00  0.00    -0.244 OA
ATOM      5  O3  UAP d 901     -26.024  83.628  12.883  0.00  0.00    -0.389 OA
ATOM      6  O61 UAP d 901     -28.668  87.361  11.766  0.00  0.00    -0.642 OA
ATOM      7  O5  UAP d 901     -26.920  87.016  14.722  0.00  0.00    -0.311 OA
ATOM      8  O2S UAP d 901     -22.512  84.070  13.775  0.00  0.00    -0.572 OA
ATOM      9  S   UAP d 901     -22.663  84.953  14.945  0.00  0.00     0.252 S 
ATOM     10  C5  UAP d 901     -27.332  86.802  13.464  0.00  0.00     0.147 C 
ATOM     11  C2  UAP d 901     -25.405  85.140  14.662  0.00  0.00     0.135 C 
ATOM     12  O62 UAP d 901     -28.805  88.465  13.644  0.00  0.00    -0.642 OA
ATOM     13  O3S UAP d 901     -22.682  84.140  16.175  0.00  0.00    -0.572 OA
ATOM     14  C4  UAP d 901     -26.779  85.837  12.707  0.00  0.00    -0.034 C 
ATOM     15  C1  UAP d 901     -26.511  85.849  15.432  0.00  0.00     0.167 C 
ATOM     16  H   UAP d 901     -24.828  85.267  12.649  0.00  0.00     0.093 H 
ATOM     17  H   UAP d 901     -26.827  83.371  13.362  0.00  0.00     0.210 HD
ATOM     18  H   UAP d 901     -25.327  84.157  15.075  0.00  0.00     0.097 H 
ATOM     19  H   UAP d 901     -27.131  85.706  11.746  0.00  0.00     0.085 H 
ATOM     20  H   UAP d 901     -26.149  86.156  16.391  0.00  0.00     0.134 H 
ATOM     21  O1S IDS d 903     -34.010  81.525  24.653  0.00  0.00    -0.572 OA
ATOM     22  O2  IDS d 903     -33.146  81.939  22.186  0.00  0.00    -0.244 OA
ATOM     23  O5  IDS d 903     -32.176  80.747  18.947  0.00  0.00    -0.340 OA
ATOM     24  C6  IDS d 903     -30.295  81.031  17.538  0.00  0.00     0.206 C 
ATOM     25  O2S IDS d 903     -31.787  80.751  24.126  0.00  0.00    -0.572 OA
ATOM     26  C3  IDS d 903     -31.899  82.911  20.411  0.00  0.00     0.094 C 
ATOM     27  O3S IDS d 903     -32.219  83.111  24.363  0.00  0.00    -0.572 OA
ATOM     28  O3  IDS d 903     -31.488  83.948  21.275  0.00  0.00    -0.390 OA
ATOM     29  O61 IDS d 903     -29.080  81.213  17.339  0.00  0.00    -0.646 OA
ATOM     30  C1  IDS d 903     -32.697  80.577  20.275  0.00  0.00     0.161 C 
ATOM     31  C4  IDS d 903     -30.781  82.619  19.402  0.00  0.00     0.103 C 
ATOM     32  C2  IDS d 903     -32.144  81.657  21.216  0.00  0.00     0.134 C 
ATOM     33  S   IDS d 903     -32.775  81.821  23.905  0.00  0.00     0.252 S 
ATOM     34  C5  IDS d 903     -30.816  81.151  18.958  0.00  0.00     0.152 C 
ATOM     35  O62 IDS d 903     -31.103  80.745  16.625  0.00  0.00    -0.646 OA
ATOM     36  H   IDS d 903     -32.792  83.208  19.903  0.00  0.00     0.091 H 
ATOM     37  H   IDS d 903     -30.679  83.681  21.738  0.00  0.00     0.210 HD
ATOM     38  H   IDS d 903     -33.764  80.645  20.226  0.00  0.00     0.133 H 
ATOM     39  H   IDS d 903     -29.841  82.826  19.871  0.00  0.00     0.092 H 
ATOM     40  H   IDS d 903     -31.239  81.329  21.683  0.00  0.00     0.097 H 
ATOM     41  H   IDS d 903     -30.219  80.554  19.615  0.00  0.00     0.104 H 
ATOM     42  O6  SGN d 902     -27.017  86.406  18.887  0.00  0.00    -0.254 OA
ATOM     43  C1  SGN d 902     -30.711  84.829  18.424  0.00  0.00     0.150 C 
ATOM     44  C5  SGN d 902     -28.350  84.670  17.915  0.00  0.00     0.091 C 
ATOM     45  N   SGN d 902     -32.313  85.265  16.648  0.00  0.00    -0.210 NA
ATOM     46  S1  SGN d 902     -33.693  86.106  17.367  0.00  0.00     0.156 S 
ATOM     47  C4  SGN d 902     -28.561  85.404  16.589  0.00  0.00     0.095 C 
ATOM     48  O5S SGN d 902     -25.057  87.280  20.430  0.00  0.00    -0.572 OA
ATOM     49  C2  SGN d 902     -30.973  85.563  17.112  0.00  0.00     0.081 C 
ATOM     50  S2  SGN d 902     -25.510  87.311  19.026  0.00  0.00     0.251 S 
ATOM     51  O3S SGN d 902     -33.573  86.086  18.836  0.00  0.00    -0.296 OA
ATOM     52  C6  SGN d 902     -26.993  85.032  18.504  0.00  0.00     0.067 C 
ATOM     53  O3  SGN d 902     -30.180  85.802  14.858  0.00  0.00    -0.391 OA
ATOM     54  O2S SGN d 902     -33.711  87.504  16.897  0.00  0.00    -0.296 OA
ATOM     55  O6S SGN d 902     -24.487  86.696  18.158  0.00  0.00    -0.572 OA
ATOM     56  C3  SGN d 902     -29.961  85.112  16.067  0.00  0.00     0.083 C 
ATOM     57  O5  SGN d 902     -29.364  85.081  18.845  0.00  0.00    -0.349 OA
ATOM     58  O1S SGN d 902     -34.941  85.433  16.963  0.00  0.00    -0.296 OA
ATOM     59  O4S SGN d 902     -25.735  88.708  18.608  0.00  0.00    -0.572 OA
ATOM     60  O4  SGN d 902     -27.603  84.952  15.631  0.00  0.00    -0.348 OA
ATOM     61  O1  SGN d 902     -30.970  83.435  18.245  0.00  0.00    -0.348 OA
ATOM     62  H   SGN d 902     -31.364  85.184  19.194  0.00  0.00     0.131 H 
ATOM     63  H   SGN d 902     -28.400  83.616  17.738  0.00  0.00     0.090 H 
ATOM     64  H   SGN d 902     -32.463  84.267  16.799  0.00  0.00     0.140 HD
ATOM     65  H   SGN d 902     -28.443  86.456  16.746  0.00  0.00     0.091 H 
ATOM     66  H   SGN d 902     -30.878  86.617  17.268  0.00  0.00     0.076 H 
ATOM     67  H   SGN d 902     -33.561  85.167  19.147  0.00  0.00     0.231 HD
ATOM     68  H   SGN d 902     -26.798  84.421  19.362  0.00  0.00     0.080 H 
ATOM     69  H   SGN d 902     -26.223  84.866  17.780  0.00  0.00     0.080 H 
ATOM     70  H   SGN d 902     -29.532  85.511  14.197  0.00  0.00     0.210 HD
ATOM     71  H   SGN d 902     -33.790  87.520  15.930  0.00  0.00     0.231 HD
ATOM     72  H   SGN d 902     -30.067  84.064  15.883  0.00  0.00     0.089 H 
ATOM     73  H   SGN d 902     -35.018  85.447  15.996  0.00  0.00     0.231 HD
ATOM     74  O4S SGN d 904     -37.631  79.938  19.641  0.00  0.00    -0.572 OA
ATOM     75  O5S SGN d 904     -37.969  79.637  22.009  0.00  0.00    -0.572 OA
ATOM     76  C3  SGN d 904     -32.025  77.210  19.700  0.00  0.00     0.083 C 
ATOM     77  N   SGN d 904     -31.842  74.983  18.788  0.00  0.00    -0.210 NA
ATOM     78  O5  SGN d 904     -34.359  76.338  21.071  0.00  0.00    -0.350 OA
ATOM     79  O6S SGN d 904     -36.256  81.135  21.227  0.00  0.00    -0.572 OA
ATOM     80  O3S SGN d 904     -33.664  74.152  17.086  0.00  0.00    -0.296 OA
ATOM     81  O4  SGN d 904     -32.276  79.314  20.784  0.00  0.00    -0.348 OA
ATOM     82  S2  SGN d 904     -36.967  79.870  20.957  0.00  0.00     0.251 S 
ATOM     83  O1  SGN d 904     -32.476  74.989  21.506  0.00  0.00    -0.369 OA
ATOM     84  O3  SGN d 904     -31.436  77.761  18.543  0.00  0.00    -0.391 OA
ATOM     85  O2S SGN d 904     -31.471  73.150  16.919  0.00  0.00    -0.296 OA
ATOM     86  C5  SGN d 904     -33.726  77.551  21.491  0.00  0.00     0.091 C 
ATOM     87  O6  SGN d 904     -35.810  78.546  20.961  0.00  0.00    -0.254 OA
ATOM     88  O1S SGN d 904     -32.932  72.576  18.757  0.00  0.00    -0.296 OA
ATOM     89  C1  SGN d 904     -33.462  75.359  20.538  0.00  0.00     0.147 C 
ATOM     90  C4  SGN d 904     -33.015  78.196  20.301  0.00  0.00     0.095 C 
ATOM     91  C2  SGN d 904     -32.773  75.949  19.316  0.00  0.00     0.081 C 
ATOM     92  C6  SGN d 904     -34.820  78.477  21.986  0.00  0.00     0.067 C 
ATOM     93  S1  SGN d 904     -32.504  73.652  17.846  0.00  0.00     0.156 S 
ATOM     94  H   SGN d 904     -31.259  76.994  20.415  0.00  0.00     0.089 H 
ATOM     95  H   SGN d 904     -31.339  74.579  19.578  0.00  0.00     0.140 HD
ATOM     96  H   SGN d 904     -33.377  74.860  16.488  0.00  0.00     0.231 HD
ATOM     97  H   SGN d 904     -32.914  74.613  22.286  0.00  0.00     0.212 HD
ATOM     98  H   SGN d 904     -32.126  77.959  17.892  0.00  0.00     0.210 HD
ATOM     99  H   SGN d 904     -31.195  73.864  16.323  0.00  0.00     0.231 HD
ATOM    100  H   SGN d 904     -33.006  77.361  22.259  0.00  0.00     0.090 H 
ATOM    101  H   SGN d 904     -33.610  72.916  19.362  0.00  0.00     0.231 HD
ATOM    102  H   SGN d 904     -34.017  74.483  20.273  0.00  0.00     0.131 H 
ATOM    103  H   SGN d 904     -33.735  78.487  19.564  0.00  0.00     0.091 H 
ATOM    104  H   SGN d 904     -33.508  76.190  18.577  0.00  0.00     0.076 H 
ATOM    105  H   SGN d 904     -34.419  79.451  22.175  0.00  0.00     0.080 H 
ATOM    106  H   SGN d 904     -35.243  78.111  22.898  0.00  0.00     0.080 H 
ENDROOT
TORSDOF 33
ENDMDL
MODEL 9
REMARK VINA RESULT:      -7.9      3.637     12.039
REMARK  0 active torsions:
REMARK  status: ('A' for Active; 'I' for Inactive)
REMARK       I    between atoms: C3_1  and  O3_18 
REMARK       I    between atoms: O6_3  and  C6_41 
REMARK       I    between atoms: O6_3  and  S2_27 
REMARK       I    between atoms: C1_4  and  O1_67 
REMARK       I    between atoms: O2_6  and  C2_60 
REMARK       I    between atoms: O2_6  and  S_64 
REMARK       I    between atoms: C5_7  and  C6_41 
REMARK       I    between atoms: C6_9  and  C5_36 
REMARK       I    between atoms: N_10  and  C2_26 
REMARK       I    between atoms: N_10  and  S1_14 
REMARK       I    between atoms: O2_12  and  C2_39 
REMARK       I    between atoms: O2_12  and  S_34 
REMARK       I    between atoms: C3_13  and  O3_44 
REMARK       I    between atoms: S1_14  and  O1S_57 
REMARK       I    between atoms: S1_14  and  O2S_48 
REMARK       I    between atoms: S1_14  and  O3S_38 
REMARK       I    between atoms: C6_16  and  C5_68 
REMARK       I    between atoms: C4_17  and  O4_62 
REMARK       I    between atoms: N_21  and  C2_65 
REMARK       I    between atoms: N_21  and  S1_69 
REMARK       I    between atoms: C3_25  and  O3_30 
REMARK       I    between atoms: O3S_29  and  S1_69 
REMARK       I    between atoms: O4_31  and  C1_42 
REMARK       I    between atoms: O4_31  and  C4_63 
REMARK       I    between atoms: S2_35  and  O6_49 
REMARK       I    between atoms: O1_37  and  C1_61 
REMARK       I    between atoms: O2S_45  and  S1_69 
REMARK       I    between atoms: O3_46  and  C3_55 
REMARK       I    between atoms: C5_47  and  C6_66 
REMARK       I    between atoms: O6_49  and  C6_66 
REMARK       I    between atoms: O1S_52  and  S1_69 
REMARK       I    between atoms: C1_54  and  O4_62 
REMARK       I    between atoms: C4_59  and  O1_67 
ROOT
ATOM      1  C3  UAP d 901     -24.644  85.351  17.112  0.00  0.00     0.086 C 
ATOM      2  O1S UAP d 901     -25.659  89.382  19.205  0.00  0.00    -0.572 OA
ATOM      3  C6  UAP d 901     -25.823  84.626  13.720  0.00  0.00     0.233 C 
ATOM      4  O2  UAP d 901     -26.080  87.148  17.837  0.00  0.00    -0.244 OA
ATOM      5  O3  UAP d 901     -24.031  84.342  17.886  0.00  0.00    -0.389 OA
ATOM      6  O61 UAP d 901     -24.757  84.182  13.236  0.00  0.00    -0.642 OA
ATOM      7  O5  UAP d 901     -26.980  85.508  15.519  0.00  0.00    -0.311 OA
ATOM      8  O2S UAP d 901     -24.189  87.529  19.658  0.00  0.00    -0.572 OA
ATOM      9  S   UAP d 901     -25.577  87.917  19.347  0.00  0.00     0.252 S 
ATOM     10  C5  UAP d 901     -25.847  85.020  14.993  0.00  0.00     0.147 C 
ATOM     11  C2  UAP d 901     -25.999  85.731  17.711  0.00  0.00     0.135 C 
ATOM     12  O62 UAP d 901     -26.864  84.718  13.034  0.00  0.00    -0.642 OA
ATOM     13  O3S UAP d 901     -26.465  87.477  20.439  0.00  0.00    -0.572 OA
ATOM     14  C4  UAP d 901     -24.723  84.931  15.728  0.00  0.00    -0.034 C 
ATOM     15  C1  UAP d 901     -27.182  85.218  16.900  0.00  0.00     0.167 C 
ATOM     16  H   UAP d 901     -24.049  86.240  17.131  0.00  0.00     0.093 H 
ATOM     17  H   UAP d 901     -24.577  83.540  17.863  0.00  0.00     0.210 HD
ATOM     18  H   UAP d 901     -26.059  85.260  18.669  0.00  0.00     0.097 H 
ATOM     19  H   UAP d 901     -23.876  84.546  15.284  0.00  0.00     0.085 H 
ATOM     20  H   UAP d 901     -28.079  85.709  17.213  0.00  0.00     0.134 H 
ATOM     21  O1S IDS d 903     -36.071  76.773  20.001  0.00  0.00    -0.572 OA
ATOM     22  O2  IDS d 903     -33.725  77.670  19.169  0.00  0.00    -0.244 OA
ATOM     23  O5  IDS d 903     -30.144  77.751  19.338  0.00  0.00    -0.340 OA
ATOM     24  C6  IDS d 903     -28.502  79.445  19.527  0.00  0.00     0.206 C 
ATOM     25  O2S IDS d 903     -34.838  78.185  21.519  0.00  0.00    -0.572 OA
ATOM     26  C3  IDS d 903     -32.101  79.209  18.366  0.00  0.00     0.094 C 
ATOM     27  O3S IDS d 903     -35.885  79.136  19.566  0.00  0.00    -0.572 OA
ATOM     28  O3  IDS d 903     -33.126  80.143  18.103  0.00  0.00    -0.390 OA
ATOM     29  O61 IDS d 903     -28.097  80.554  19.922  0.00  0.00    -0.646 OA
ATOM     30  C1  IDS d 903     -31.437  77.251  19.717  0.00  0.00     0.161 C 
ATOM     31  C4  IDS d 903     -30.824  79.958  18.769  0.00  0.00     0.103 C 
ATOM     32  C2  IDS d 903     -32.513  78.328  19.522  0.00  0.00     0.134 C 
ATOM     33  S   IDS d 903     -35.190  77.950  20.108  0.00  0.00     0.252 S 
ATOM     34  C5  IDS d 903     -29.968  79.107  19.716  0.00  0.00     0.152 C 
ATOM     35  O62 IDS d 903     -27.754  78.595  18.990  0.00  0.00    -0.646 OA
ATOM     36  H   IDS d 903     -31.928  78.620  17.491  0.00  0.00     0.091 H 
ATOM     37  H   IDS d 903     -33.285  80.679  18.895  0.00  0.00     0.210 HD
ATOM     38  H   IDS d 903     -31.656  76.399  19.108  0.00  0.00     0.133 H 
ATOM     39  H   IDS d 903     -31.106  80.865  19.262  0.00  0.00     0.092 H 
ATOM     40  H   IDS d 903     -32.636  78.910  20.410  0.00  0.00     0.097 H 
ATOM     41  H   IDS d 903     -30.255  79.288  20.731  0.00  0.00     0.104 H 
ATOM     42  O6  SGN d 902     -30.659  85.176  17.540  0.00  0.00    -0.254 OA
ATOM     43  C1  SGN d 902     -30.589  81.218  16.719  0.00  0.00     0.150 C 
ATOM     44  C5  SGN d 902     -29.530  83.086  17.837  0.00  0.00     0.091 C 
ATOM     45  N   SGN d 902     -29.449  80.089  14.893  0.00  0.00    -0.210 NA
ATOM     46  S1  SGN d 902     -30.688  79.420  13.821  0.00  0.00     0.156 S 
ATOM     47  C4  SGN d 902     -28.581  83.289  16.655  0.00  0.00     0.095 C 
ATOM     48  O5S SGN d 902     -31.907  87.325  18.445  0.00  0.00    -0.572 OA
ATOM     49  C2  SGN d 902     -29.663  81.379  15.515  0.00  0.00     0.081 C 
ATOM     50  S2  SGN d 902     -30.723  86.936  17.653  0.00  0.00     0.251 S 
ATOM     51  O3S SGN d 902     -32.011  79.539  14.461  0.00  0.00    -0.296 OA
ATOM     52  C6  SGN d 902     -29.876  84.428  18.468  0.00  0.00     0.067 C 
ATOM     53  O3  SGN d 902     -27.475  82.125  14.866  0.00  0.00    -0.391 OA
ATOM     54  O2S SGN d 902     -30.690  80.168  12.551  0.00  0.00    -0.296 OA
ATOM     55  O6S SGN d 902     -29.498  87.429  18.312  0.00  0.00    -0.572 OA
ATOM     56  C3  SGN d 902     -28.328  81.951  15.974  0.00  0.00     0.083 C 
ATOM     57  O5  SGN d 902     -30.748  82.489  17.365  0.00  0.00    -0.349 OA
ATOM     58  O1S SGN d 902     -30.392  78.000  13.558  0.00  0.00    -0.296 OA
ATOM     59  O4S SGN d 902     -30.820  87.512  16.298  0.00  0.00    -0.572 OA
ATOM     60  O4  SGN d 902     -27.338  83.817  17.120  0.00  0.00    -0.348 OA
ATOM     61  O1  SGN d 902     -30.052  80.228  17.598  0.00  0.00    -0.348 OA
ATOM     62  H   SGN d 902     -31.558  80.887  16.411  0.00  0.00     0.131 H 
ATOM     63  H   SGN d 902     -29.052  82.457  18.560  0.00  0.00     0.090 H 
ATOM     64  H   SGN d 902     -29.314  79.415  15.647  0.00  0.00     0.140 HD
ATOM     65  H   SGN d 902     -29.024  83.972  15.961  0.00  0.00     0.091 H 
ATOM     66  H   SGN d 902     -30.112  82.045  14.807  0.00  0.00     0.076 H 
ATOM     67  H   SGN d 902     -32.011  79.047  15.298  0.00  0.00     0.231 HD
ATOM     68  H   SGN d 902     -30.434  84.271  19.368  0.00  0.00     0.080 H 
ATOM     69  H   SGN d 902     -28.980  84.962  18.707  0.00  0.00     0.080 H 
ATOM     70  H   SGN d 902     -26.627  82.489  15.164  0.00  0.00     0.210 HD
ATOM     71  H   SGN d 902     -29.821  80.091  12.128  0.00  0.00     0.231 HD
ATOM     72  H   SGN d 902     -27.859  81.278  16.661  0.00  0.00     0.089 H 
ATOM     73  H   SGN d 902     -29.521  77.923  13.137  0.00  0.00     0.231 HD
ATOM     74  O4S SGN d 904     -31.781  72.775  17.479  0.00  0.00    -0.572 OA
ATOM     75  O5S SGN d 904     -33.951  72.376  18.450  0.00  0.00    -0.572 OA
ATOM     76  C3  SGN d 904     -29.712  75.936  22.439  0.00  0.00     0.083 C 
ATOM     77  N   SGN d 904     -28.140  74.837  23.904  0.00  0.00    -0.210 NA
ATOM     78  O5  SGN d 904     -31.241  73.538  22.463  0.00  0.00    -0.350 OA
ATOM     79  O6S SGN d 904     -33.301  74.615  17.855  0.00  0.00    -0.572 OA
ATOM     80  O3S SGN d 904     -26.728  72.825  22.976  0.00  0.00    -0.296 OA
ATOM     81  O4  SGN d 904     -31.420  76.914  21.101  0.00  0.00    -0.348 OA
ATOM     82  S2  SGN d 904     -32.823  73.318  18.371  0.00  0.00     0.251 S 
ATOM     83  O1  SGN d 904     -30.796  74.368  24.623  0.00  0.00    -0.369 OA
ATOM     84  O3  SGN d 904     -28.680  76.707  21.867  0.00  0.00    -0.391 OA
ATOM     85  O2S SGN d 904     -25.763  74.092  24.793  0.00  0.00    -0.296 OA
ATOM     86  C5  SGN d 904     -31.859  74.745  22.005  0.00  0.00     0.091 C 
ATOM     87  O6  SGN d 904     -32.153  73.549  19.981  0.00  0.00    -0.254 OA
ATOM     88  O1S SGN d 904     -27.616  72.597  25.204  0.00  0.00    -0.296 OA
ATOM     89  C1  SGN d 904     -30.242  73.732  23.468  0.00  0.00     0.147 C 
ATOM     90  C4  SGN d 904     -30.798  75.669  21.408  0.00  0.00     0.095 C 
ATOM     91  C2  SGN d 904     -29.138  74.607  22.891  0.00  0.00     0.081 C 
ATOM     92  C6  SGN d 904     -32.852  74.356  20.927  0.00  0.00     0.067 C 
ATOM     93  S1  SGN d 904     -27.010  73.530  24.239  0.00  0.00     0.156 S 
ATOM     94  H   SGN d 904     -30.130  76.469  23.268  0.00  0.00     0.089 H 
ATOM     95  H   SGN d 904     -28.629  75.048  24.774  0.00  0.00     0.140 HD
ATOM     96  H   SGN d 904     -26.329  73.442  22.343  0.00  0.00     0.231 HD
ATOM     97  H   SGN d 904     -31.499  73.812  24.993  0.00  0.00     0.212 HD
ATOM     98  H   SGN d 904     -28.297  76.228  21.116  0.00  0.00     0.210 HD
ATOM     99  H   SGN d 904     -25.371  74.705  24.150  0.00  0.00     0.231 HD
ATOM    100  H   SGN d 904     -32.345  75.255  22.810  0.00  0.00     0.090 H 
ATOM    101  H   SGN d 904     -28.435  72.232  24.833  0.00  0.00     0.231 HD
ATOM    102  H   SGN d 904     -29.853  72.780  23.764  0.00  0.00     0.131 H 
ATOM    103  H   SGN d 904     -30.372  75.215  20.538  0.00  0.00     0.091 H 
ATOM    104  H   SGN d 904     -28.699  74.113  22.050  0.00  0.00     0.076 H 
ATOM    105  H   SGN d 904     -33.236  75.233  20.448  0.00  0.00     0.080 H 
ATOM    106  H   SGN d 904     -33.678  73.821  21.347  0.00  0.00     0.080 H 
ENDROOT
TORSDOF 33
ENDMDL
MODEL 10
REMARK VINA RESULT:      -7.9      5.409      8.100
REMARK  0 active torsions:
REMARK  status: ('A' for Active; 'I' for Inactive)
REMARK       I    between atoms: C3_1  and  O3_18 
REMARK       I    between atoms: O6_3  and  C6_41 
REMARK       I    between atoms: O6_3  and  S2_27 
REMARK       I    between atoms: C1_4  and  O1_67 
REMARK       I    between atoms: O2_6  and  C2_60 
REMARK       I    between atoms: O2_6  and  S_64 
REMARK       I    between atoms: C5_7  and  C6_41 
REMARK       I    between atoms: C6_9  and  C5_36 
REMARK       I    between atoms: N_10  and  C2_26 
REMARK       I    between atoms: N_10  and  S1_14 
REMARK       I    between atoms: O2_12  and  C2_39 
REMARK       I    between atoms: O2_12  and  S_34 
REMARK       I    between atoms: C3_13  and  O3_44 
REMARK       I    between atoms: S1_14  and  O1S_57 
REMARK       I    between atoms: S1_14  and  O2S_48 
REMARK       I    between atoms: S1_14  and  O3S_38 
REMARK       I    between atoms: C6_16  and  C5_68 
REMARK       I    between atoms: C4_17  and  O4_62 
REMARK       I    between atoms: N_21  and  C2_65 
REMARK       I    between atoms: N_21  and  S1_69 
REMARK       I    between atoms: C3_25  and  O3_30 
REMARK       I    between atoms: O3S_29  and  S1_69 
REMARK       I    between atoms: O4_31  and  C1_42 
REMARK       I    between atoms: O4_31  and  C4_63 
REMARK       I    between atoms: S2_35  and  O6_49 
REMARK       I    between atoms: O1_37  and  C1_61 
REMARK       I    between atoms: O2S_45  and  S1_69 
REMARK       I    between atoms: O3_46  and  C3_55 
REMARK       I    between atoms: C5_47  and  C6_66 
REMARK       I    between atoms: O6_49  and  C6_66 
REMARK       I    between atoms: O1S_52  and  S1_69 
REMARK       I    between atoms: C1_54  and  O4_62 
REMARK       I    between atoms: C4_59  and  O1_67 
ROOT
ATOM      1  C3  UAP d 901     -34.489  75.926  17.978  0.00  0.00     0.086 C 
ATOM      2  O1S UAP d 901     -38.193  77.490  20.323  0.00  0.00    -0.572 OA
ATOM      3  C6  UAP d 901     -32.421  73.205  19.297  0.00  0.00     0.233 C 
ATOM      4  O2  UAP d 901     -35.688  76.715  19.916  0.00  0.00    -0.244 OA
ATOM      5  O3  UAP d 901     -34.076  76.650  16.839  0.00  0.00    -0.389 OA
ATOM      6  O61 UAP d 901     -32.322  72.515  18.257  0.00  0.00    -0.642 OA
ATOM      7  O5  UAP d 901     -33.239  75.081  20.375  0.00  0.00    -0.311 OA
ATOM      8  O2S UAP d 901     -37.294  77.809  18.111  0.00  0.00    -0.572 OA
ATOM      9  S   UAP d 901     -36.989  77.854  19.552  0.00  0.00     0.252 S 
ATOM     10  C5  UAP d 901     -33.117  74.341  19.263  0.00  0.00     0.147 C 
ATOM     11  C2  UAP d 901     -34.449  76.818  19.219  0.00  0.00     0.135 C 
ATOM     12  O62 UAP d 901     -31.889  72.847  20.370  0.00  0.00    -0.642 OA
ATOM     13  O3S UAP d 901     -36.561  79.217  19.921  0.00  0.00    -0.572 OA
ATOM     14  C4  UAP d 901     -33.698  74.720  18.110  0.00  0.00    -0.034 C 
ATOM     15  C1  UAP d 901     -33.299  76.490  20.161  0.00  0.00     0.167 C 
ATOM     16  H   UAP d 901     -35.507  75.615  17.865  0.00  0.00     0.093 H 
ATOM     17  H   UAP d 901     -33.153  76.926  16.950  0.00  0.00     0.210 HD
ATOM     18  H   UAP d 901     -34.288  77.819  18.878  0.00  0.00     0.097 H 
ATOM     19  H   UAP d 901     -33.574  74.121  17.279  0.00  0.00     0.085 H 
ATOM     20  H   UAP d 901     -33.458  76.961  21.109  0.00  0.00     0.134 H 
ATOM     21  O1S IDS d 903     -23.272  83.466  23.436  0.00  0.00    -0.572 OA
ATOM     22  O2  IDS d 903     -24.754  81.844  21.963  0.00  0.00    -0.244 OA
ATOM     23  O5  IDS d 903     -26.303  80.944  18.857  0.00  0.00    -0.340 OA
ATOM     24  C6  IDS d 903     -28.489  80.348  18.173  0.00  0.00     0.206 C 
ATOM     25  O2S IDS d 903     -25.427  84.289  22.732  0.00  0.00    -0.572 OA
ATOM     26  C3  IDS d 903     -26.515  80.347  21.407  0.00  0.00     0.094 C 
ATOM     27  O3S IDS d 903     -25.282  82.593  24.440  0.00  0.00    -0.572 OA
ATOM     28  O3  IDS d 903     -26.845  80.236  22.775  0.00  0.00    -0.390 OA
ATOM     29  O61 IDS d 903     -29.730  80.409  18.257  0.00  0.00    -0.646 OA
ATOM     30  C1  IDS d 903     -25.459  81.764  19.681  0.00  0.00     0.161 C 
ATOM     31  C4  IDS d 903     -27.793  80.223  20.567  0.00  0.00     0.103 C 
ATOM     32  C2  IDS d 903     -25.912  81.707  21.147  0.00  0.00     0.134 C 
ATOM     33  S   IDS d 903     -24.680  83.105  23.191  0.00  0.00     0.252 S 
ATOM     34  C5  IDS d 903     -27.664  81.012  19.257  0.00  0.00     0.152 C 
ATOM     35  O62 IDS d 903     -27.895  79.772  17.233  0.00  0.00    -0.646 OA
ATOM     36  H   IDS d 903     -25.821  79.576  21.148  0.00  0.00     0.091 H 
ATOM     37  H   IDS d 903     -27.474  80.935  23.013  0.00  0.00     0.210 HD
ATOM     38  H   IDS d 903     -24.456  81.403  19.594  0.00  0.00     0.133 H 
ATOM     39  H   IDS d 903     -28.610  80.612  21.137  0.00  0.00     0.092 H 
ATOM     40  H   IDS d 903     -26.623  82.478  21.357  0.00  0.00     0.097 H 
ATOM     41  H   IDS d 903     -27.996  82.019  19.401  0.00  0.00     0.104 H 
ATOM     42  O6  SGN d 902     -32.056  78.114  23.045  0.00  0.00    -0.254 OA
ATOM     43  C1  SGN d 902     -28.401  78.008  21.320  0.00  0.00     0.150 C 
ATOM     44  C5  SGN d 902     -30.770  78.427  21.050  0.00  0.00     0.091 C 
ATOM     45  N   SGN d 902     -27.352  76.154  20.149  0.00  0.00    -0.210 NA
ATOM     46  S1  SGN d 902     -25.969  75.624  21.116  0.00  0.00     0.156 S 
ATOM     47  C4  SGN d 902     -30.989  77.002  20.537  0.00  0.00     0.095 C 
ATOM     48  O5S SGN d 902     -33.687  78.956  24.948  0.00  0.00    -0.572 OA
ATOM     49  C2  SGN d 902     -28.568  76.578  20.812  0.00  0.00     0.081 C 
ATOM     50  S2  SGN d 902     -33.595  77.933  23.888  0.00  0.00     0.251 S 
ATOM     51  O3S SGN d 902     -25.727  76.591  22.202  0.00  0.00    -0.296 OA
ATOM     52  C6  SGN d 902     -31.981  78.888  21.850  0.00  0.00     0.067 C 
ATOM     53  O3  SGN d 902     -29.908  75.199  19.373  0.00  0.00    -0.391 OA
ATOM     54  O2S SGN d 902     -26.259  74.299  21.697  0.00  0.00    -0.296 OA
ATOM     55  O6S SGN d 902     -34.702  78.110  22.928  0.00  0.00    -0.572 OA
ATOM     56  C3  SGN d 902     -29.731  76.520  19.829  0.00  0.00     0.083 C 
ATOM     57  O5  SGN d 902     -29.629  78.441  21.921  0.00  0.00    -0.349 OA
ATOM     58  O1S SGN d 902     -24.775  75.536  20.256  0.00  0.00    -0.296 OA
ATOM     59  O4S SGN d 902     -33.673  76.587  24.487  0.00  0.00    -0.572 OA
ATOM     60  O4  SGN d 902     -32.079  76.985  19.613  0.00  0.00    -0.348 OA
ATOM     61  O1  SGN d 902     -28.003  78.850  20.236  0.00  0.00    -0.348 OA
ATOM     62  H   SGN d 902     -27.637  78.058  22.067  0.00  0.00     0.131 H 
ATOM     63  H   SGN d 902     -30.619  79.076  20.212  0.00  0.00     0.090 H 
ATOM     64  H   SGN d 902     -27.034  76.941  19.583  0.00  0.00     0.140 HD
ATOM     65  H   SGN d 902     -31.210  76.360  21.364  0.00  0.00     0.091 H 
ATOM     66  H   SGN d 902     -28.767  75.927  21.638  0.00  0.00     0.076 H 
ATOM     67  H   SGN d 902     -25.536  77.463  21.822  0.00  0.00     0.231 HD
ATOM     68  H   SGN d 902     -31.877  79.924  22.097  0.00  0.00     0.080 H 
ATOM     69  H   SGN d 902     -32.873  78.758  21.272  0.00  0.00     0.080 H 
ATOM     70  H   SGN d 902     -30.649  75.169  18.748  0.00  0.00     0.210 HD
ATOM     71  H   SGN d 902     -26.419  73.661  20.984  0.00  0.00     0.231 HD
ATOM     72  H   SGN d 902     -29.528  77.146  18.985  0.00  0.00     0.089 H 
ATOM     73  H   SGN d 902     -24.937  74.899  19.542  0.00  0.00     0.231 HD
ATOM     74  O4S SGN d 904     -20.785  80.536  18.340  0.00  0.00    -0.572 OA
ATOM     75  O5S SGN d 904     -19.846  82.152  19.863  0.00  0.00    -0.572 OA
ATOM     76  C3  SGN d 904     -25.778  84.049  17.075  0.00  0.00     0.083 C 
ATOM     77  N   SGN d 904     -25.865  85.159  14.934  0.00  0.00    -0.210 NA
ATOM     78  O5  SGN d 904     -23.084  84.934  17.299  0.00  0.00    -0.350 OA
ATOM     79  O6S SGN d 904     -21.888  81.014  20.436  0.00  0.00    -0.572 OA
ATOM     80  O3S SGN d 904     -24.412  84.223  12.955  0.00  0.00    -0.296 OA
ATOM     81  O4  SGN d 904     -25.566  83.120  19.256  0.00  0.00    -0.348 OA
ATOM     82  S2  SGN d 904     -21.095  81.586  19.330  0.00  0.00     0.251 S 
ATOM     83  O1  SGN d 904     -24.601  86.692  16.894  0.00  0.00    -0.369 OA
ATOM     84  O3  SGN d 904     -26.699  83.076  16.638  0.00  0.00    -0.391 OA
ATOM     85  O2S SGN d 904     -26.420  85.430  12.362  0.00  0.00    -0.296 OA
ATOM     86  C5  SGN d 904     -23.758  84.474  18.475  0.00  0.00     0.091 C 
ATOM     87  O6  SGN d 904     -22.023  82.864  18.556  0.00  0.00    -0.254 OA
ATOM     88  O1S SGN d 904     -24.493  86.618  13.210  0.00  0.00    -0.296 OA
ATOM     89  C1  SGN d 904     -23.939  85.554  16.334  0.00  0.00     0.147 C 
ATOM     90  C4  SGN d 904     -24.818  83.442  18.087  0.00  0.00     0.095 C 
ATOM     91  C2  SGN d 904     -24.978  84.537  15.883  0.00  0.00     0.081 C 
ATOM     92  C6  SGN d 904     -22.716  83.818  19.359  0.00  0.00     0.067 C 
ATOM     93  S1  SGN d 904     -25.274  85.371  13.290  0.00  0.00     0.156 S 
ATOM     94  H   SGN d 904     -26.311  84.858  17.530  0.00  0.00     0.089 H 
ATOM     95  H   SGN d 904     -26.102  86.083  15.295  0.00  0.00     0.140 HD
ATOM     96  H   SGN d 904     -24.929  83.405  13.009  0.00  0.00     0.231 HD
ATOM     97  H   SGN d 904     -23.940  87.341  17.182  0.00  0.00     0.212 HD
ATOM     98  H   SGN d 904     -26.220  82.341  16.225  0.00  0.00     0.210 HD
ATOM     99  H   SGN d 904     -26.927  84.605  12.421  0.00  0.00     0.231 HD
ATOM    100  H   SGN d 904     -24.238  85.285  18.982  0.00  0.00     0.090 H 
ATOM    101  H   SGN d 904     -23.743  86.571  13.823  0.00  0.00     0.231 HD
ATOM    102  H   SGN d 904     -23.349  85.885  15.504  0.00  0.00     0.131 H 
ATOM    103  H   SGN d 904     -24.345  82.578  17.669  0.00  0.00     0.091 H 
ATOM    104  H   SGN d 904     -24.483  83.704  15.430  0.00  0.00     0.076 H 
ATOM    105  H   SGN d 904     -23.190  83.327  20.183  0.00  0.00     0.080 H 
ATOM    106  H   SGN d 904     -22.039  84.546  19.753  0.00  0.00     0.080 H 
ENDROOT
TORSDOF 33
ENDMDL
MODEL 11
REMARK VINA RESULT:      -7.7      4.134     10.592
REMARK  0 active torsions:
REMARK  status: ('A' for Active; 'I' for Inactive)
REMARK       I    between atoms: C3_1  and  O3_18 
REMARK       I    between atoms: O6_3  and  C6_41 
REMARK       I    between atoms: O6_3  and  S2_27 
REMARK       I    between atoms: C1_4  and  O1_67 
REMARK       I    between atoms: O2_6  and  C2_60 
REMARK       I    between atoms: O2_6  and  S_64 
REMARK       I    between atoms: C5_7  and  C6_41 
REMARK       I    between atoms: C6_9  and  C5_36 
REMARK       I    between atoms: N_10  and  C2_26 
REMARK       I    between atoms: N_10  and  S1_14 
REMARK       I    between atoms: O2_12  and  C2_39 
REMARK       I    between atoms: O2_12  and  S_34 
REMARK       I    between atoms: C3_13  and  O3_44 
REMARK       I    between atoms: S1_14  and  O1S_57 
REMARK       I    between atoms: S1_14  and  O2S_48 
REMARK       I    between atoms: S1_14  and  O3S_38 
REMARK       I    between atoms: C6_16  and  C5_68 
REMARK       I    between atoms: C4_17  and  O4_62 
REMARK       I    between atoms: N_21  and  C2_65 
REMARK       I    between atoms: N_21  and  S1_69 
REMARK       I    between atoms: C3_25  and  O3_30 
REMARK       I    between atoms: O3S_29  and  S1_69 
REMARK       I    between atoms: O4_31  and  C1_42 
REMARK       I    between atoms: O4_31  and  C4_63 
REMARK       I    between atoms: S2_35  and  O6_49 
REMARK       I    between atoms: O1_37  and  C1_61 
REMARK       I    between atoms: O2S_45  and  S1_69 
REMARK       I    between atoms: O3_46  and  C3_55 
REMARK       I    between atoms: C5_47  and  C6_66 
REMARK       I    between atoms: O6_49  and  C6_66 
REMARK       I    between atoms: O1S_52  and  S1_69 
REMARK       I    between atoms: C1_54  and  O4_62 
REMARK       I    between atoms: C4_59  and  O1_67 
ROOT
ATOM      1  C3  UAP d 901     -22.870  84.025  14.848  0.00  0.00     0.086 C 
ATOM      2  O1S UAP d 901     -20.114  85.470  18.309  0.00  0.00    -0.572 OA
ATOM      3  C6  UAP d 901     -24.235  86.386  12.401  0.00  0.00     0.233 C 
ATOM      4  O2  UAP d 901     -22.216  85.438  16.691  0.00  0.00    -0.244 OA
ATOM      5  O3  UAP d 901     -23.316  82.687  14.875  0.00  0.00    -0.389 OA
ATOM      6  O61 UAP d 901     -23.994  85.741  11.356  0.00  0.00    -0.642 OA
ATOM      7  O5  UAP d 901     -24.137  86.555  14.707  0.00  0.00    -0.311 OA
ATOM      8  O2S UAP d 901     -20.761  83.336  17.400  0.00  0.00    -0.572 OA
ATOM      9  S   UAP d 901     -21.257  84.620  17.929  0.00  0.00     0.252 S 
ATOM     10  C5  UAP d 901     -23.893  85.867  13.581  0.00  0.00     0.147 C 
ATOM     11  C2  UAP d 901     -23.328  84.765  16.106  0.00  0.00     0.135 C 
ATOM     12  O62 UAP d 901     -24.782  87.509  12.364  0.00  0.00    -0.642 OA
ATOM     13  O3S UAP d 901     -22.100  84.369  19.114  0.00  0.00    -0.572 OA
ATOM     14  C4  UAP d 901     -23.295  84.663  13.619  0.00  0.00    -0.034 C 
ATOM     15  C1  UAP d 901     -24.452  85.758  15.846  0.00  0.00     0.167 C 
ATOM     16  H   UAP d 901     -21.800  84.055  14.856  0.00  0.00     0.093 H 
ATOM     17  H   UAP d 901     -24.286  82.669  14.868  0.00  0.00     0.210 HD
ATOM     18  H   UAP d 901     -23.720  84.028  16.775  0.00  0.00     0.097 H 
ATOM     19  H   UAP d 901     -23.131  84.168  12.729  0.00  0.00     0.085 H 
ATOM     20  H   UAP d 901     -24.562  86.412  16.686  0.00  0.00     0.134 H 
ATOM     21  O1S IDS d 903     -36.395  85.739  20.008  0.00  0.00    -0.572 OA
ATOM     22  O2  IDS d 903     -34.329  85.101  18.484  0.00  0.00    -0.244 OA
ATOM     23  O5  IDS d 903     -32.186  82.679  16.935  0.00  0.00    -0.340 OA
ATOM     24  C6  IDS d 903     -29.850  82.314  16.833  0.00  0.00     0.206 C 
ATOM     25  O2S IDS d 903     -34.489  84.748  21.106  0.00  0.00    -0.572 OA
ATOM     26  C3  IDS d 903     -32.157  85.239  17.528  0.00  0.00     0.094 C 
ATOM     27  O3S IDS d 903     -34.373  87.018  20.300  0.00  0.00    -0.572 OA
ATOM     28  O3  IDS d 903     -31.996  86.521  18.093  0.00  0.00    -0.390 OA
ATOM     29  O61 IDS d 903     -28.701  82.362  17.310  0.00  0.00    -0.646 OA
ATOM     30  C1  IDS d 903     -33.331  83.073  17.708  0.00  0.00     0.161 C 
ATOM     31  C4  IDS d 903     -30.796  84.531  17.481  0.00  0.00     0.103 C 
ATOM     32  C2  IDS d 903     -33.082  84.421  18.399  0.00  0.00     0.134 C 
ATOM     33  S   IDS d 903     -34.923  85.671  20.042  0.00  0.00     0.252 S 
ATOM     34  C5  IDS d 903     -30.968  83.010  17.584  0.00  0.00     0.152 C 
ATOM     35  O62 IDS d 903     -30.124  81.712  15.770  0.00  0.00    -0.646 OA
ATOM     36  H   IDS d 903     -32.561  85.335  16.543  0.00  0.00     0.091 H 
ATOM     37  H   IDS d 903     -31.629  86.437  18.987  0.00  0.00     0.210 HD
ATOM     38  H   IDS d 903     -34.170  83.150  17.047  0.00  0.00     0.133 H 
ATOM     39  H   IDS d 903     -30.207  84.879  18.304  0.00  0.00     0.092 H 
ATOM     40  H   IDS d 903     -32.654  84.280  19.368  0.00  0.00     0.097 H 
ATOM     41  H   IDS d 903     -30.959  82.708  18.611  0.00  0.00     0.104 H 
ATOM     42  O6  SGN d 902     -26.481  87.670  18.022  0.00  0.00    -0.254 OA
ATOM     43  C1  SGN d 902     -29.689  86.160  16.079  0.00  0.00     0.150 C 
ATOM     44  C5  SGN d 902     -27.523  85.734  17.074  0.00  0.00     0.091 C 
ATOM     45  N   SGN d 902     -30.000  85.897  13.683  0.00  0.00    -0.210 NA
ATOM     46  S1  SGN d 902     -31.291  87.000  13.187  0.00  0.00     0.156 S 
ATOM     47  C4  SGN d 902     -26.841  85.881  15.712  0.00  0.00     0.095 C 
ATOM     48  O5S SGN d 902     -25.427  89.027  20.031  0.00  0.00    -0.572 OA
ATOM     49  C2  SGN d 902     -29.055  86.313  14.699  0.00  0.00     0.081 C 
ATOM     50  S2  SGN d 902     -25.081  88.507  18.694  0.00  0.00     0.251 S 
ATOM     51  O3S SGN d 902     -31.943  87.567  14.382  0.00  0.00    -0.296 OA
ATOM     52  C6  SGN d 902     -26.612  86.258  18.175  0.00  0.00     0.067 C 
ATOM     53  O3  SGN d 902     -27.199  85.602  13.351  0.00  0.00    -0.391 OA
ATOM     54  O2S SGN d 902     -30.718  88.092  12.378  0.00  0.00    -0.296 OA
ATOM     55  O6S SGN d 902     -23.952  87.562  18.803  0.00  0.00    -0.572 OA
ATOM     56  C3  SGN d 902     -27.804  85.449  14.615  0.00  0.00     0.083 C 
ATOM     57  O5  SGN d 902     -28.728  86.516  17.082  0.00  0.00    -0.349 OA
ATOM     58  O1S SGN d 902     -32.285  86.261  12.386  0.00  0.00    -0.296 OA
ATOM     59  O4S SGN d 902     -24.704  89.625  17.808  0.00  0.00    -0.572 OA
ATOM     60  O4  SGN d 902     -25.678  85.052  15.664  0.00  0.00    -0.348 OA
ATOM     61  O1  SGN d 902     -30.162  84.820  16.235  0.00  0.00    -0.348 OA
ATOM     62  H   SGN d 902     -30.528  86.814  16.186  0.00  0.00     0.131 H 
ATOM     63  H   SGN d 902     -27.739  84.699  17.242  0.00  0.00     0.090 H 
ATOM     64  H   SGN d 902     -30.451  85.049  14.027  0.00  0.00     0.140 HD
ATOM     65  H   SGN d 902     -26.559  86.903  15.568  0.00  0.00     0.091 H 
ATOM     66  H   SGN d 902     -28.792  87.338  14.540  0.00  0.00     0.076 H 
ATOM     67  H   SGN d 902     -32.321  86.850  14.915  0.00  0.00     0.231 HD
ATOM     68  H   SGN d 902     -27.039  86.037  19.132  0.00  0.00     0.080 H 
ATOM     69  H   SGN d 902     -25.652  85.791  18.110  0.00  0.00     0.080 H 
ATOM     70  H   SGN d 902     -26.403  85.050  13.305  0.00  0.00     0.210 HD
ATOM     71  H   SGN d 902     -30.288  87.721  11.591  0.00  0.00     0.231 HD
ATOM     72  H   SGN d 902     -28.062  84.419  14.744  0.00  0.00     0.089 H 
ATOM     73  H   SGN d 902     -31.854  85.889  11.600  0.00  0.00     0.231 HD
ATOM     74  O4S SGN d 904     -37.240  82.392  14.639  0.00  0.00    -0.572 OA
ATOM     75  O5S SGN d 904     -38.794  83.077  16.350  0.00  0.00    -0.572 OA
ATOM     76  C3  SGN d 904     -33.331  79.739  18.708  0.00  0.00     0.083 C 
ATOM     77  N   SGN d 904     -33.277  77.328  18.815  0.00  0.00    -0.210 NA
ATOM     78  O5  SGN d 904     -36.170  79.565  18.710  0.00  0.00    -0.350 OA
ATOM     79  O6S SGN d 904     -36.609  84.080  16.248  0.00  0.00    -0.572 OA
ATOM     80  O3S SGN d 904     -34.125  75.943  16.750  0.00  0.00    -0.296 OA
ATOM     81  O4  SGN d 904     -33.559  82.108  18.731  0.00  0.00    -0.348 OA
ATOM     82  S2  SGN d 904     -37.376  82.837  16.039  0.00  0.00     0.251 S 
ATOM     83  O1  SGN d 904     -35.176  78.445  20.530  0.00  0.00    -0.369 OA
ATOM     84  O3  SGN d 904     -32.121  79.760  17.985  0.00  0.00    -0.391 OA
ATOM     85  O2S SGN d 904     -32.483  74.888  18.175  0.00  0.00    -0.296 OA
ATOM     86  C5  SGN d 904     -35.556  80.824  19.006  0.00  0.00     0.091 C 
ATOM     87  O6  SGN d 904     -36.756  81.589  17.113  0.00  0.00    -0.254 OA
ATOM     88  O1S SGN d 904     -34.764  75.147  18.933  0.00  0.00    -0.296 OA
ATOM     89  C1  SGN d 904     -35.406  78.426  19.118  0.00  0.00     0.147 C 
ATOM     90  C4  SGN d 904     -34.205  80.914  18.297  0.00  0.00     0.095 C 
ATOM     91  C2  SGN d 904     -34.070  78.454  18.389  0.00  0.00     0.081 C 
ATOM     92  C6  SGN d 904     -36.477  81.905  18.475  0.00  0.00     0.067 C 
ATOM     93  S1  SGN d 904     -33.679  75.753  18.142  0.00  0.00     0.156 S 
ATOM     94  H   SGN d 904     -33.116  79.803  19.754  0.00  0.00     0.089 H 
ATOM     95  H   SGN d 904     -33.363  77.259  19.829  0.00  0.00     0.140 HD
ATOM     96  H   SGN d 904     -33.408  76.342  16.232  0.00  0.00     0.231 HD
ATOM     97  H   SGN d 904     -36.026  78.427  20.996  0.00  0.00     0.212 HD
ATOM     98  H   SGN d 904     -32.310  79.702  17.035  0.00  0.00     0.210 HD
ATOM     99  H   SGN d 904     -31.775  75.294  17.652  0.00  0.00     0.231 HD
ATOM    100  H   SGN d 904     -35.399  80.934  20.059  0.00  0.00     0.090 H 
ATOM    101  H   SGN d 904     -35.545  75.723  18.906  0.00  0.00     0.231 HD
ATOM    102  H   SGN d 904     -35.948  77.535  18.878  0.00  0.00     0.131 H 
ATOM    103  H   SGN d 904     -34.352  80.908  17.237  0.00  0.00     0.091 H 
ATOM    104  H   SGN d 904     -34.241  78.402  17.334  0.00  0.00     0.076 H 
ATOM    105  H   SGN d 904     -35.997  82.859  18.539  0.00  0.00     0.080 H 
ATOM    106  H   SGN d 904     -37.379  81.950  19.047  0.00  0.00     0.080 H 
ENDROOT
TORSDOF 33
ENDMDL
MODEL 12
REMARK VINA RESULT:      -7.7      5.584     12.741
REMARK  0 active torsions:
REMARK  status: ('A' for Active; 'I' for Inactive)
REMARK       I    between atoms: C3_1  and  O3_18 
REMARK       I    between atoms: O6_3  and  C6_41 
REMARK       I    between atoms: O6_3  and  S2_27 
REMARK       I    between atoms: C1_4  and  O1_67 
REMARK       I    between atoms: O2_6  and  C2_60 
REMARK       I    between atoms: O2_6  and  S_64 
REMARK       I    between atoms: C5_7  and  C6_41 
REMARK       I    between atoms: C6_9  and  C5_36 
REMARK       I    between atoms: N_10  and  C2_26 
REMARK       I    between atoms: N_10  and  S1_14 
REMARK       I    between atoms: O2_12  and  C2_39 
REMARK       I    between atoms: O2_12  and  S_34 
REMARK       I    between atoms: C3_13  and  O3_44 
REMARK       I    between atoms: S1_14  and  O1S_57 
REMARK       I    between atoms: S1_14  and  O2S_48 
REMARK       I    between atoms: S1_14  and  O3S_38 
REMARK       I    between atoms: C6_16  and  C5_68 
REMARK       I    between atoms: C4_17  and  O4_62 
REMARK       I    between atoms: N_21  and  C2_65 
REMARK       I    between atoms: N_21  and  S1_69 
REMARK       I    between atoms: C3_25  and  O3_30 
REMARK       I    between atoms: O3S_29  and  S1_69 
REMARK       I    between atoms: O4_31  and  C1_42 
REMARK       I    between atoms: O4_31  and  C4_63 
REMARK       I    between atoms: S2_35  and  O6_49 
REMARK       I    between atoms: O1_37  and  C1_61 
REMARK       I    between atoms: O2S_45  and  S1_69 
REMARK       I    between atoms: O3_46  and  C3_55 
REMARK       I    between atoms: C5_47  and  C6_66 
REMARK       I    between atoms: O6_49  and  C6_66 
REMARK       I    between atoms: O1S_52  and  S1_69 
REMARK       I    between atoms: C1_54  and  O4_62 
REMARK       I    between atoms: C4_59  and  O1_67 
ROOT
ATOM      1  C3  UAP d 901     -26.582  86.041  15.479  0.00  0.00     0.086 C 
ATOM      2  O1S UAP d 901     -23.466  85.582  12.053  0.00  0.00    -0.572 OA
ATOM      3  C6  UAP d 901     -25.652  87.510  18.704  0.00  0.00     0.233 C 
ATOM      4  O2  UAP d 901     -24.462  85.425  14.507  0.00  0.00    -0.244 OA
ATOM      5  O3  UAP d 901     -27.844  85.430  15.310  0.00  0.00    -0.389 OA
ATOM      6  O61 UAP d 901     -26.623  88.286  18.850  0.00  0.00    -0.642 OA
ATOM      7  O5  UAP d 901     -24.546  85.915  17.444  0.00  0.00    -0.311 OA
ATOM      8  O2S UAP d 901     -25.855  85.351  12.250  0.00  0.00    -0.572 OA
ATOM      9  S   UAP d 901     -24.555  84.938  12.810  0.00  0.00     0.252 S 
ATOM     10  C5  UAP d 901     -25.589  86.742  17.616  0.00  0.00     0.147 C 
ATOM     11  C2  UAP d 901     -25.471  84.993  15.417  0.00  0.00     0.135 C 
ATOM     12  O62 UAP d 901     -24.734  87.446  19.550  0.00  0.00    -0.642 OA
ATOM     13  O3S UAP d 901     -24.422  83.472  12.715  0.00  0.00    -0.572 OA
ATOM     14  C4  UAP d 901     -26.571  86.820  16.700  0.00  0.00    -0.034 C 
ATOM     15  C1  UAP d 901     -24.846  84.694  16.773  0.00  0.00     0.167 C 
ATOM     16  H   UAP d 901     -26.395  86.724  14.677  0.00  0.00     0.093 H 
ATOM     17  H   UAP d 901     -28.005  84.814  16.041  0.00  0.00     0.210 HD
ATOM     18  H   UAP d 901     -25.920  84.082  15.080  0.00  0.00     0.097 H 
ATOM     19  H   UAP d 901     -27.355  87.466  16.877  0.00  0.00     0.085 H 
ATOM     20  H   UAP d 901     -23.931  84.156  16.643  0.00  0.00     0.134 H 
ATOM     21  O1S IDS d 903     -24.921  74.014  23.546  0.00  0.00    -0.572 OA
ATOM     22  O2  IDS d 903     -25.814  76.307  22.574  0.00  0.00    -0.244 OA
ATOM     23  O5  IDS d 903     -28.313  78.258  20.901  0.00  0.00    -0.340 OA
ATOM     24  C6  IDS d 903     -28.342  79.739  19.055  0.00  0.00     0.206 C 
ATOM     25  O2S IDS d 903     -25.088  74.195  21.146  0.00  0.00    -0.572 OA
ATOM     26  C3  IDS d 903     -25.761  78.426  21.499  0.00  0.00     0.094 C 
ATOM     27  O3S IDS d 903     -23.353  75.381  22.329  0.00  0.00    -0.572 OA
ATOM     28  O3  IDS d 903     -24.350  78.406  21.543  0.00  0.00    -0.390 OA
ATOM     29  O61 IDS d 903     -27.935  80.132  17.946  0.00  0.00    -0.646 OA
ATOM     30  C1  IDS d 903     -27.812  77.050  21.494  0.00  0.00     0.161 C 
ATOM     31  C4  IDS d 903     -26.218  79.166  20.235  0.00  0.00     0.103 C 
ATOM     32  C2  IDS d 903     -26.278  77.009  21.427  0.00  0.00     0.134 C 
ATOM     33  S   IDS d 903     -24.753  74.912  22.390  0.00  0.00     0.252 S 
ATOM     34  C5  IDS d 903     -27.572  78.633  19.750  0.00  0.00     0.152 C 
ATOM     35  O62 IDS d 903     -29.358  80.209  19.616  0.00  0.00    -0.646 OA
ATOM     36  H   IDS d 903     -26.134  78.915  22.373  0.00  0.00     0.091 H 
ATOM     37  H   IDS d 903     -24.009  77.963  20.751  0.00  0.00     0.210 HD
ATOM     38  H   IDS d 903     -28.135  77.019  22.513  0.00  0.00     0.133 H 
ATOM     39  H   IDS d 903     -25.483  79.016  19.472  0.00  0.00     0.092 H 
ATOM     40  H   IDS d 903     -25.948  76.536  20.527  0.00  0.00     0.097 H 
ATOM     41  H   IDS d 903     -27.425  77.814  19.077  0.00  0.00     0.104 H 
ATOM     42  O6  SGN d 902     -22.535  82.237  17.833  0.00  0.00    -0.254 OA
ATOM     43  C1  SGN d 902     -25.158  81.276  20.755  0.00  0.00     0.150 C 
ATOM     44  C5  SGN d 902     -24.819  81.828  18.422  0.00  0.00     0.091 C 
ATOM     45  N   SGN d 902     -26.416  82.781  22.191  0.00  0.00    -0.210 NA
ATOM     46  S1  SGN d 902     -25.814  82.574  23.841  0.00  0.00     0.156 S 
ATOM     47  C4  SGN d 902     -25.141  83.298  18.697  0.00  0.00     0.095 C 
ATOM     48  O5S SGN d 902     -20.338  81.741  16.447  0.00  0.00    -0.572 OA
ATOM     49  C2  SGN d 902     -25.489  82.731  21.079  0.00  0.00     0.081 C 
ATOM     50  S2  SGN d 902     -21.301  82.826  16.718  0.00  0.00     0.251 S 
ATOM     51  O3S SGN d 902     -24.912  81.409  23.895  0.00  0.00    -0.296 OA
ATOM     52  C6  SGN d 902     -23.764  81.718  17.330  0.00  0.00     0.067 C 
ATOM     53  O3  SGN d 902     -26.406  84.743  20.143  0.00  0.00    -0.391 OA
ATOM     54  O2S SGN d 902     -25.075  83.784  24.246  0.00  0.00    -0.296 OA
ATOM     55  O6S SGN d 902     -21.942  83.250  15.458  0.00  0.00    -0.572 OA
ATOM     56  C3  SGN d 902     -26.119  83.392  19.860  0.00  0.00     0.083 C 
ATOM     57  O5  SGN d 902     -24.287  81.232  19.617  0.00  0.00    -0.349 OA
ATOM     58  O1S SGN d 902     -26.952  82.361  24.754  0.00  0.00    -0.296 OA
ATOM     59  O4S SGN d 902     -20.598  83.974  17.324  0.00  0.00    -0.572 OA
ATOM     60  O4  SGN d 902     -25.737  83.885  17.539  0.00  0.00    -0.348 OA
ATOM     61  O1  SGN d 902     -26.372  80.554  20.536  0.00  0.00    -0.348 OA
ATOM     62  H   SGN d 902     -24.648  80.811  21.573  0.00  0.00     0.131 H 
ATOM     63  H   SGN d 902     -25.715  81.330  18.114  0.00  0.00     0.090 H 
ATOM     64  H   SGN d 902     -27.107  82.046  22.033  0.00  0.00     0.140 HD
ATOM     65  H   SGN d 902     -24.237  83.817  18.938  0.00  0.00     0.091 H 
ATOM     66  H   SGN d 902     -24.591  83.250  21.343  0.00  0.00     0.076 H 
ATOM     67  H   SGN d 902     -25.396  80.612  23.630  0.00  0.00     0.231 HD
ATOM     68  H   SGN d 902     -23.636  80.691  17.054  0.00  0.00     0.080 H 
ATOM     69  H   SGN d 902     -24.071  82.272  16.467  0.00  0.00     0.080 H 
ATOM     70  H   SGN d 902     -26.806  85.158  19.363  0.00  0.00     0.210 HD
ATOM     71  H   SGN d 902     -25.667  84.552  24.211  0.00  0.00     0.231 HD
ATOM     72  H   SGN d 902     -27.032  82.897  19.607  0.00  0.00     0.089 H 
ATOM     73  H   SGN d 902     -27.544  83.129  24.717  0.00  0.00     0.231 HD
ATOM     74  O4S SGN d 904     -30.249  76.660  25.860  0.00  0.00    -0.572 OA
ATOM     75  O5S SGN d 904     -29.163  74.567  26.362  0.00  0.00    -0.572 OA
ATOM     76  C3  SGN d 904     -30.410  75.552  19.726  0.00  0.00     0.083 C 
ATOM     77  N   SGN d 904     -32.531  74.957  18.741  0.00  0.00    -0.210 NA
ATOM     78  O5  SGN d 904     -30.982  73.701  21.808  0.00  0.00    -0.350 OA
ATOM     79  O6S SGN d 904     -27.980  76.264  25.133  0.00  0.00    -0.572 OA
ATOM     80  O3S SGN d 904     -34.745  75.618  19.991  0.00  0.00    -0.296 OA
ATOM     81  O4  SGN d 904     -28.298  75.931  20.757  0.00  0.00    -0.348 OA
ATOM     82  S2  SGN d 904     -29.298  75.645  25.369  0.00  0.00     0.251 S 
ATOM     83  O1  SGN d 904     -31.105  72.740  19.660  0.00  0.00    -0.369 OA
ATOM     84  O3  SGN d 904     -30.508  76.861  19.210  0.00  0.00    -0.391 OA
ATOM     85  O2S SGN d 904     -34.875  75.375  17.590  0.00  0.00    -0.296 OA
ATOM     86  C5  SGN d 904     -29.637  74.162  21.646  0.00  0.00     0.091 C 
ATOM     87  O6  SGN d 904     -29.895  74.965  23.860  0.00  0.00    -0.254 OA
ATOM     88  O1S SGN d 904     -34.667  73.423  19.000  0.00  0.00    -0.296 OA
ATOM     89  C1  SGN d 904     -31.731  73.627  20.591  0.00  0.00     0.147 C 
ATOM     90  C4  SGN d 904     -29.646  75.566  21.042  0.00  0.00     0.095 C 
ATOM     91  C2  SGN d 904     -31.807  75.022  19.985  0.00  0.00     0.081 C 
ATOM     92  C6  SGN d 904     -29.014  74.213  23.028  0.00  0.00     0.067 C 
ATOM     93  S1  SGN d 904     -34.284  74.835  18.830  0.00  0.00     0.156 S 
ATOM     94  H   SGN d 904     -29.894  74.934  19.021  0.00  0.00     0.089 H 
ATOM     95  H   SGN d 904     -32.193  74.139  18.232  0.00  0.00     0.140 HD
ATOM     96  H   SGN d 904     -34.492  76.547  19.875  0.00  0.00     0.231 HD
ATOM     97  H   SGN d 904     -31.056  71.850  20.044  0.00  0.00     0.212 HD
ATOM     98  H   SGN d 904     -30.974  77.425  19.846  0.00  0.00     0.210 HD
ATOM     99  H   SGN d 904     -34.618  76.305  17.487  0.00  0.00     0.231 HD
ATOM    100  H   SGN d 904     -29.086  73.513  20.999  0.00  0.00     0.090 H 
ATOM    101  H   SGN d 904     -34.274  73.076  19.817  0.00  0.00     0.231 HD
ATOM    102  H   SGN d 904     -32.711  73.255  20.804  0.00  0.00     0.131 H 
ATOM    103  H   SGN d 904     -30.105  76.250  21.724  0.00  0.00     0.091 H 
ATOM    104  H   SGN d 904     -32.308  75.677  20.666  0.00  0.00     0.076 H 
ATOM    105  H   SGN d 904     -28.057  74.690  22.981  0.00  0.00     0.080 H 
ATOM    106  H   SGN d 904     -28.873  73.227  23.417  0.00  0.00     0.080 H 
ENDROOT
TORSDOF 33
ENDMDL
MODEL 13
REMARK VINA RESULT:      -7.7      4.933     10.239
REMARK  0 active torsions:
REMARK  status: ('A' for Active; 'I' for Inactive)
REMARK       I    between atoms: C3_1  and  O3_18 
REMARK       I    between atoms: O6_3  and  C6_41 
REMARK       I    between atoms: O6_3  and  S2_27 
REMARK       I    between atoms: C1_4  and  O1_67 
REMARK       I    between atoms: O2_6  and  C2_60 
REMARK       I    between atoms: O2_6  and  S_64 
REMARK       I    between atoms: C5_7  and  C6_41 
REMARK       I    between atoms: C6_9  and  C5_36 
REMARK       I    between atoms: N_10  and  C2_26 
REMARK       I    between atoms: N_10  and  S1_14 
REMARK       I    between atoms: O2_12  and  C2_39 
REMARK       I    between atoms: O2_12  and  S_34 
REMARK       I    between atoms: C3_13  and  O3_44 
REMARK       I    between atoms: S1_14  and  O1S_57 
REMARK       I    between atoms: S1_14  and  O2S_48 
REMARK       I    between atoms: S1_14  and  O3S_38 
REMARK       I    between atoms: C6_16  and  C5_68 
REMARK       I    between atoms: C4_17  and  O4_62 
REMARK       I    between atoms: N_21  and  C2_65 
REMARK       I    between atoms: N_21  and  S1_69 
REMARK       I    between atoms: C3_25  and  O3_30 
REMARK       I    between atoms: O3S_29  and  S1_69 
REMARK       I    between atoms: O4_31  and  C1_42 
REMARK       I    between atoms: O4_31  and  C4_63 
REMARK       I    between atoms: S2_35  and  O6_49 
REMARK       I    between atoms: O1_37  and  C1_61 
REMARK       I    between atoms: O2S_45  and  S1_69 
REMARK       I    between atoms: O3_46  and  C3_55 
REMARK       I    between atoms: C5_47  and  C6_66 
REMARK       I    between atoms: O6_49  and  C6_66 
REMARK       I    between atoms: O1S_52  and  S1_69 
REMARK       I    between atoms: C1_54  and  O4_62 
REMARK       I    between atoms: C4_59  and  O1_67 
ROOT
ATOM      1  C3  UAP d 901     -21.536  81.744  22.107  0.00  0.00     0.086 C 
ATOM      2  O1S UAP d 901     -21.553  83.553  26.395  0.00  0.00    -0.572 OA
ATOM      3  C6  UAP d 901     -21.063  83.865  19.157  0.00  0.00     0.233 C 
ATOM      4  O2  UAP d 901     -22.178  83.307  23.829  0.00  0.00    -0.244 OA
ATOM      5  O3  UAP d 901     -21.904  80.389  21.961  0.00  0.00    -0.389 OA
ATOM      6  O61 UAP d 901     -20.221  83.165  18.549  0.00  0.00    -0.642 OA
ATOM      7  O5  UAP d 901     -22.430  84.191  20.995  0.00  0.00    -0.311 OA
ATOM      8  O2S UAP d 901     -21.492  81.333  25.463  0.00  0.00    -0.572 OA
ATOM      9  S   UAP d 901     -22.208  82.622  25.458  0.00  0.00     0.252 S 
ATOM     10  C5  UAP d 901     -21.536  83.443  20.330  0.00  0.00     0.147 C 
ATOM     11  C2  UAP d 901     -22.680  82.541  22.736  0.00  0.00     0.135 C 
ATOM     12  O62 UAP d 901     -21.462  84.954  18.693  0.00  0.00    -0.642 OA
ATOM     13  O3S UAP d 901     -23.607  82.409  25.872  0.00  0.00    -0.572 OA
ATOM     14  C4  UAP d 901     -21.097  82.276  20.834  0.00  0.00    -0.034 C 
ATOM     15  C1  UAP d 901     -23.391  83.458  21.750  0.00  0.00     0.167 C 
ATOM     16  H   UAP d 901     -20.708  81.828  22.779  0.00  0.00     0.093 H 
ATOM     17  H   UAP d 901     -22.656  80.323  21.351  0.00  0.00     0.210 HD
ATOM     18  H   UAP d 901     -23.406  81.832  23.073  0.00  0.00     0.097 H 
ATOM     19  H   UAP d 901     -20.412  81.732  20.285  0.00  0.00     0.085 H 
ATOM     20  H   UAP d 901     -24.001  84.159  22.278  0.00  0.00     0.134 H 
ATOM     21  O1S IDS d 903     -35.308  83.113  17.527  0.00  0.00    -0.572 OA
ATOM     22  O2  IDS d 903     -32.743  82.480  17.686  0.00  0.00    -0.244 OA
ATOM     23  O5  IDS d 903     -30.109  80.072  18.023  0.00  0.00    -0.340 OA
ATOM     24  C6  IDS d 903     -28.225  79.818  19.433  0.00  0.00     0.206 C 
ATOM     25  O2S IDS d 903     -34.511  82.294  19.652  0.00  0.00    -0.572 OA
ATOM     26  C3  IDS d 903     -30.451  82.663  18.289  0.00  0.00     0.094 C 
ATOM     27  O3S IDS d 903     -33.911  84.509  18.910  0.00  0.00    -0.572 OA
ATOM     28  O3  IDS d 903     -30.677  83.987  18.721  0.00  0.00    -0.390 OA
ATOM     29  O61 IDS d 903     -27.628  79.956  20.517  0.00  0.00    -0.646 OA
ATOM     30  C1  IDS d 903     -31.484  80.458  17.876  0.00  0.00     0.161 C 
ATOM     31  C4  IDS d 903     -29.363  82.023  19.161  0.00  0.00     0.103 C 
ATOM     32  C2  IDS d 903     -31.720  81.860  18.456  0.00  0.00     0.134 C 
ATOM     33  S   IDS d 903     -34.181  83.122  18.478  0.00  0.00     0.252 S 
ATOM     34  C5  IDS d 903     -29.565  80.505  19.261  0.00  0.00     0.152 C 
ATOM     35  O62 IDS d 903     -27.774  79.134  18.486  0.00  0.00    -0.646 OA
ATOM     36  H   IDS d 903     -30.149  82.674  17.263  0.00  0.00     0.091 H 
ATOM     37  H   IDS d 903     -30.951  83.981  19.651  0.00  0.00     0.210 HD
ATOM     38  H   IDS d 903     -31.724  80.448  16.833  0.00  0.00     0.133 H 
ATOM     39  H   IDS d 903     -29.418  82.454  20.139  0.00  0.00     0.092 H 
ATOM     40  H   IDS d 903     -31.994  81.805  19.488  0.00  0.00     0.097 H 
ATOM     41  H   IDS d 903     -30.202  80.274  20.089  0.00  0.00     0.104 H 
ATOM     42  O6  SGN d 902     -26.330  85.405  22.013  0.00  0.00    -0.254 OA
ATOM     43  C1  SGN d 902     -27.618  83.609  18.628  0.00  0.00     0.150 C 
ATOM     44  C5  SGN d 902     -26.554  83.360  20.788  0.00  0.00     0.091 C 
ATOM     45  N   SGN d 902     -26.360  83.172  16.594  0.00  0.00    -0.210 NA
ATOM     46  S1  SGN d 902     -27.053  84.173  15.311  0.00  0.00     0.156 S 
ATOM     47  C4  SGN d 902     -25.169  83.450  20.144  0.00  0.00     0.095 C 
ATOM     48  O5S SGN d 902     -26.765  86.944  24.119  0.00  0.00    -0.572 OA
ATOM     49  C2  SGN d 902     -26.259  83.702  17.938  0.00  0.00     0.081 C 
ATOM     50  S2  SGN d 902     -25.658  86.354  23.340  0.00  0.00     0.251 S 
ATOM     51  O3S SGN d 902     -28.308  84.785  15.785  0.00  0.00    -0.296 OA
ATOM     52  C6  SGN d 902     -26.532  84.001  22.168  0.00  0.00     0.067 C 
ATOM     53  O3  SGN d 902     -23.970  82.998  18.110  0.00  0.00    -0.391 OA
ATOM     54  O2S SGN d 902     -26.097  85.236  14.950  0.00  0.00    -0.296 OA
ATOM     55  O6S SGN d 902     -24.849  85.477  24.208  0.00  0.00    -0.572 OA
ATOM     56  C3  SGN d 902     -25.233  82.898  18.727  0.00  0.00     0.083 C 
ATOM     57  O5  SGN d 902     -27.496  84.079  19.977  0.00  0.00    -0.349 OA
ATOM     58  O1S SGN d 902     -27.328  83.334  14.130  0.00  0.00    -0.296 OA
ATOM     59  O4S SGN d 902     -24.807  87.428  22.794  0.00  0.00    -0.572 OA
ATOM     60  O4  SGN d 902     -24.235  82.680  20.902  0.00  0.00    -0.348 OA
ATOM     61  O1  SGN d 902     -28.087  82.260  18.565  0.00  0.00    -0.348 OA
ATOM     62  H   SGN d 902     -28.338  84.226  18.132  0.00  0.00     0.131 H 
ATOM     63  H   SGN d 902     -26.830  82.329  20.870  0.00  0.00     0.090 H 
ATOM     64  H   SGN d 902     -26.929  82.327  16.651  0.00  0.00     0.140 HD
ATOM     65  H   SGN d 902     -24.856  84.473  20.122  0.00  0.00     0.091 H 
ATOM     66  H   SGN d 902     -25.951  84.726  17.894  0.00  0.00     0.076 H 
ATOM     67  H   SGN d 902     -28.939  84.087  16.023  0.00  0.00     0.231 HD
ATOM     68  H   SGN d 902     -27.465  83.823  22.663  0.00  0.00     0.080 H 
ATOM     69  H   SGN d 902     -25.744  83.580  22.756  0.00  0.00     0.080 H 
ATOM     70  H   SGN d 902     -23.321  82.484  18.617  0.00  0.00     0.210 HD
ATOM     71  H   SGN d 902     -25.271  84.836  14.637  0.00  0.00     0.231 HD
ATOM     72  H   SGN d 902     -25.518  81.867  18.752  0.00  0.00     0.089 H 
ATOM     73  H   SGN d 902     -26.501  82.932  13.819  0.00  0.00     0.231 HD
ATOM     74  O4S SGN d 904     -32.611  79.378  13.109  0.00  0.00    -0.572 OA
ATOM     75  O5S SGN d 904     -34.893  80.096  13.410  0.00  0.00    -0.572 OA
ATOM     76  C3  SGN d 904     -32.118  77.202  18.931  0.00  0.00     0.083 C 
ATOM     77  N   SGN d 904     -32.149  74.809  19.249  0.00  0.00    -0.210 NA
ATOM     78  O5  SGN d 904     -34.334  76.886  17.175  0.00  0.00    -0.350 OA
ATOM     79  O6S SGN d 904     -33.123  81.199  14.612  0.00  0.00    -0.572 OA
ATOM     80  O3S SGN d 904     -31.520  73.249  17.231  0.00  0.00    -0.296 OA
ATOM     81  O4  SGN d 904     -32.305  79.553  18.609  0.00  0.00    -0.348 OA
ATOM     82  S2  SGN d 904     -33.593  79.907  14.074  0.00  0.00     0.251 S 
ATOM     83  O1  SGN d 904     -34.701  75.940  19.302  0.00  0.00    -0.369 OA
ATOM     84  O3  SGN d 904     -30.722  77.235  19.123  0.00  0.00    -0.391 OA
ATOM     85  O2S SGN d 904     -31.136  72.375  19.451  0.00  0.00    -0.296 OA
ATOM     86  C5  SGN d 904     -34.038  78.191  17.683  0.00  0.00     0.091 C 
ATOM     87  O6  SGN d 904     -33.785  78.767  15.399  0.00  0.00    -0.254 OA
ATOM     88  O1S SGN d 904     -33.388  72.569  18.594  0.00  0.00    -0.296 OA
ATOM     89  C1  SGN d 904     -33.996  75.816  18.063  0.00  0.00     0.147 C 
ATOM     90  C4  SGN d 904     -32.540  78.302  17.968  0.00  0.00     0.095 C 
ATOM     91  C2  SGN d 904     -32.498  75.863  18.329  0.00  0.00     0.081 C 
ATOM     92  C6  SGN d 904     -34.420  79.186  16.605  0.00  0.00     0.067 C 
ATOM     93  S1  SGN d 904     -32.045  73.175  18.607  0.00  0.00     0.156 S 
ATOM     94  H   SGN d 904     -32.606  77.346  19.872  0.00  0.00     0.089 H 
ATOM     95  H   SGN d 904     -32.852  74.803  19.988  0.00  0.00     0.140 HD
ATOM     96  H   SGN d 904     -30.637  73.648  17.243  0.00  0.00     0.231 HD
ATOM     97  H   SGN d 904     -35.656  75.910  19.134  0.00  0.00     0.212 HD
ATOM     98  H   SGN d 904     -30.276  77.105  18.272  0.00  0.00     0.210 HD
ATOM     99  H   SGN d 904     -30.255  72.781  19.453  0.00  0.00     0.231 HD
ATOM    100  H   SGN d 904     -34.574  78.379  18.589  0.00  0.00     0.090 H 
ATOM    101  H   SGN d 904     -33.978  73.101  18.038  0.00  0.00     0.231 HD
ATOM    102  H   SGN d 904     -34.271  74.885  17.612  0.00  0.00     0.131 H 
ATOM    103  H   SGN d 904     -31.991  78.217  17.054  0.00  0.00     0.091 H 
ATOM    104  H   SGN d 904     -31.971  75.732  17.407  0.00  0.00     0.076 H 
ATOM    105  H   SGN d 904     -34.084  80.166  16.875  0.00  0.00     0.080 H 
ATOM    106  H   SGN d 904     -35.482  79.223  16.483  0.00  0.00     0.080 H 
ENDROOT
TORSDOF 33
ENDMDL
MODEL 14
REMARK VINA RESULT:      -7.6      5.183      7.833
REMARK  0 active torsions:
REMARK  status: ('A' for Active; 'I' for Inactive)
REMARK       I    between atoms: C3_1  and  O3_18 
REMARK       I    between atoms: O6_3  and  C6_41 
REMARK       I    between atoms: O6_3  and  S2_27 
REMARK       I    between atoms: C1_4  and  O1_67 
REMARK       I    between atoms: O2_6  and  C2_60 
REMARK       I    between atoms: O2_6  and  S_64 
REMARK       I    between atoms: C5_7  and  C6_41 
REMARK       I    between atoms: C6_9  and  C5_36 
REMARK       I    between atoms: N_10  and  C2_26 
REMARK       I    between atoms: N_10  and  S1_14 
REMARK       I    between atoms: O2_12  and  C2_39 
REMARK       I    between atoms: O2_12  and  S_34 
REMARK       I    between atoms: C3_13  and  O3_44 
REMARK       I    between atoms: S1_14  and  O1S_57 
REMARK       I    between atoms: S1_14  and  O2S_48 
REMARK       I    between atoms: S1_14  and  O3S_38 
REMARK       I    between atoms: C6_16  and  C5_68 
REMARK       I    between atoms: C4_17  and  O4_62 
REMARK       I    between atoms: N_21  and  C2_65 
REMARK       I    between atoms: N_21  and  S1_69 
REMARK       I    between atoms: C3_25  and  O3_30 
REMARK       I    between atoms: O3S_29  and  S1_69 
REMARK       I    between atoms: O4_31  and  C1_42 
REMARK       I    between atoms: O4_31  and  C4_63 
REMARK       I    between atoms: S2_35  and  O6_49 
REMARK       I    between atoms: O1_37  and  C1_61 
REMARK       I    between atoms: O2S_45  and  S1_69 
REMARK       I    between atoms: O3_46  and  C3_55 
REMARK       I    between atoms: C5_47  and  C6_66 
REMARK       I    between atoms: O6_49  and  C6_66 
REMARK       I    between atoms: O1S_52  and  S1_69 
REMARK       I    between atoms: C1_54  and  O4_62 
REMARK       I    between atoms: C4_59  and  O1_67 
ROOT
ATOM      1  C3  UAP d 901     -22.485  75.618  20.131  0.00  0.00     0.086 C 
ATOM      2  O1S UAP d 901     -22.337  74.389  24.617  0.00  0.00    -0.572 OA
ATOM      3  C6  UAP d 901     -20.043  77.960  18.725  0.00  0.00     0.233 C 
ATOM      4  O2  UAP d 901     -22.328  75.998  22.507  0.00  0.00    -0.244 OA
ATOM      5  O3  UAP d 901     -23.604  75.212  19.372  0.00  0.00    -0.389 OA
ATOM      6  O61 UAP d 901     -19.756  77.335  17.678  0.00  0.00    -0.642 OA
ATOM      7  O5  UAP d 901     -21.246  78.101  20.696  0.00  0.00    -0.311 OA
ATOM      8  O2S UAP d 901     -23.530  73.638  22.665  0.00  0.00    -0.572 OA
ATOM      9  S   UAP d 901     -23.191  74.811  23.492  0.00  0.00     0.252 S 
ATOM     10  C5  UAP d 901     -20.940  77.445  19.567  0.00  0.00     0.147 C 
ATOM     11  C2  UAP d 901     -22.927  76.485  21.310  0.00  0.00     0.135 C 
ATOM     12  O62 UAP d 901     -19.500  79.051  19.003  0.00  0.00    -0.642 OA
ATOM     13  O3S UAP d 901     -24.430  75.418  24.014  0.00  0.00    -0.572 OA
ATOM     14  C4  UAP d 901     -21.515  76.266  19.272  0.00  0.00    -0.034 C 
ATOM     15  C1  UAP d 901     -22.596  77.961  21.131  0.00  0.00     0.167 C 
ATOM     16  H   UAP d 901     -21.999  74.763  20.553  0.00  0.00     0.093 H 
ATOM     17  H   UAP d 901     -24.037  75.992  18.993  0.00  0.00     0.210 HD
ATOM     18  H   UAP d 901     -23.993  76.416  21.364  0.00  0.00     0.097 H 
ATOM     19  H   UAP d 901     -21.253  75.799  18.390  0.00  0.00     0.085 H 
ATOM     20  H   UAP d 901     -22.696  78.473  22.065  0.00  0.00     0.134 H 
ATOM     21  O1S IDS d 903     -30.315  87.913  19.979  0.00  0.00    -0.572 OA
ATOM     22  O2  IDS d 903     -28.939  85.778  19.237  0.00  0.00    -0.244 OA
ATOM     23  O5  IDS d 903     -28.724  82.551  17.688  0.00  0.00    -0.340 OA
ATOM     24  C6  IDS d 903     -27.884  80.430  18.318  0.00  0.00     0.206 C 
ATOM     25  O2S IDS d 903     -30.795  85.846  21.127  0.00  0.00    -0.572 OA
ATOM     26  C3  IDS d 903     -27.327  84.034  19.348  0.00  0.00     0.094 C 
ATOM     27  O3S IDS d 903     -28.732  87.016  21.560  0.00  0.00    -0.572 OA
ATOM     28  O3  IDS d 903     -26.721  84.673  20.450  0.00  0.00    -0.390 OA
ATOM     29  O61 IDS d 903     -27.627  79.547  19.157  0.00  0.00    -0.646 OA
ATOM     30  C1  IDS d 903     -29.416  83.754  18.060  0.00  0.00     0.161 C 
ATOM     31  C4  IDS d 903     -27.181  82.514  19.499  0.00  0.00     0.103 C 
ATOM     32  C2  IDS d 903     -28.801  84.364  19.327  0.00  0.00     0.134 C 
ATOM     33  S   IDS d 903     -29.734  86.675  20.529  0.00  0.00     0.252 S 
ATOM     34  C5  IDS d 903     -28.347  81.783  18.821  0.00  0.00     0.152 C 
ATOM     35  O62 IDS d 903     -27.785  80.249  17.083  0.00  0.00    -0.646 OA
ATOM     36  H   IDS d 903     -26.858  84.367  18.446  0.00  0.00     0.091 H 
ATOM     37  H   IDS d 903     -27.144  84.373  21.270  0.00  0.00     0.210 HD
ATOM     38  H   IDS d 903     -29.343  84.446  17.247  0.00  0.00     0.133 H 
ATOM     39  H   IDS d 903     -27.172  82.279  20.542  0.00  0.00     0.092 H 
ATOM     40  H   IDS d 903     -29.281  83.986  20.205  0.00  0.00     0.097 H 
ATOM     41  H   IDS d 903     -29.153  81.657  19.514  0.00  0.00     0.104 H 
ATOM     42  O6  SGN d 902     -23.476  80.834  22.994  0.00  0.00    -0.254 OA
ATOM     43  C1  SGN d 902     -24.764  82.474  19.531  0.00  0.00     0.150 C 
ATOM     44  C5  SGN d 902     -24.686  80.517  20.953  0.00  0.00     0.091 C 
ATOM     45  N   SGN d 902     -23.664  82.448  17.363  0.00  0.00    -0.210 NA
ATOM     46  S1  SGN d 902     -23.193  84.110  16.982  0.00  0.00     0.156 S 
ATOM     47  C4  SGN d 902     -23.484  79.972  20.180  0.00  0.00     0.095 C 
ATOM     48  O5S SGN d 902     -23.280  80.865  25.631  0.00  0.00    -0.572 OA
ATOM     49  C2  SGN d 902     -23.567  81.972  18.728  0.00  0.00     0.081 C 
ATOM     50  S2  SGN d 902     -22.691  80.211  24.446  0.00  0.00     0.251 S 
ATOM     51  O3S SGN d 902     -23.800  85.032  17.959  0.00  0.00    -0.296 OA
ATOM     52  C6  SGN d 902     -24.581  80.135  22.423  0.00  0.00     0.067 C 
ATOM     53  O3  SGN d 902     -22.437  79.976  18.016  0.00  0.00    -0.391 OA
ATOM     54  O2S SGN d 902     -21.724  84.227  17.046  0.00  0.00    -0.296 OA
ATOM     55  O6S SGN d 902     -22.898  78.752  24.527  0.00  0.00    -0.572 OA
ATOM     56  C3  SGN d 902     -23.553  80.449  18.736  0.00  0.00     0.083 C 
ATOM     57  O5  SGN d 902     -24.691  81.950  20.864  0.00  0.00    -0.349 OA
ATOM     58  O1S SGN d 902     -23.657  84.451  15.625  0.00  0.00    -0.296 OA
ATOM     59  O4S SGN d 902     -21.245  80.501  24.386  0.00  0.00    -0.572 OA
ATOM     60  O4  SGN d 902     -23.506  78.544  20.200  0.00  0.00    -0.348 OA
ATOM     61  O1  SGN d 902     -25.971  82.096  18.865  0.00  0.00    -0.348 OA
ATOM     62  H   SGN d 902     -24.753  83.542  19.600  0.00  0.00     0.131 H 
ATOM     63  H   SGN d 902     -25.581  80.106  20.534  0.00  0.00     0.090 H 
ATOM     64  H   SGN d 902     -24.640  82.345  17.083  0.00  0.00     0.140 HD
ATOM     65  H   SGN d 902     -22.583  80.323  20.637  0.00  0.00     0.091 H 
ATOM     66  H   SGN d 902     -22.663  82.339  19.167  0.00  0.00     0.076 H 
ATOM     67  H   SGN d 902     -24.767  84.956  17.918  0.00  0.00     0.231 HD
ATOM     68  H   SGN d 902     -25.483  80.408  22.932  0.00  0.00     0.080 H 
ATOM     69  H   SGN d 902     -24.436  79.079  22.518  0.00  0.00     0.080 H 
ATOM     70  H   SGN d 902     -22.434  79.006  18.025  0.00  0.00     0.210 HD
ATOM     71  H   SGN d 902     -21.322  83.621  16.404  0.00  0.00     0.231 HD
ATOM     72  H   SGN d 902     -24.440  80.072  18.272  0.00  0.00     0.089 H 
ATOM     73  H   SGN d 902     -23.256  83.843  14.983  0.00  0.00     0.231 HD
ATOM     74  O4S SGN d 904     -29.785  86.383  13.805  0.00  0.00    -0.572 OA
ATOM     75  O5S SGN d 904     -31.014  88.138  14.911  0.00  0.00    -0.572 OA
ATOM     76  C3  SGN d 904     -32.264  81.886  17.341  0.00  0.00     0.083 C 
ATOM     77  N   SGN d 904     -33.936  80.458  16.345  0.00  0.00    -0.210 NA
ATOM     78  O5  SGN d 904     -33.631  84.101  16.194  0.00  0.00    -0.350 OA
ATOM     79  O6S SGN d 904     -29.314  86.928  16.111  0.00  0.00    -0.572 OA
ATOM     80  O3S SGN d 904     -34.029  80.240  13.729  0.00  0.00    -0.296 OA
ATOM     81  O4  SGN d 904     -30.774  83.438  18.357  0.00  0.00    -0.348 OA
ATOM     82  S2  SGN d 904     -30.370  86.826  15.085  0.00  0.00     0.251 S 
ATOM     83  O1  SGN d 904     -35.026  82.742  17.522  0.00  0.00    -0.369 OA
ATOM     84  O3  SGN d 904     -31.291  80.872  17.223  0.00  0.00    -0.391 OA
ATOM     85  O2S SGN d 904     -34.863  78.370  15.012  0.00  0.00    -0.296 OA
ATOM     86  C5  SGN d 904     -32.684  84.341  17.240  0.00  0.00     0.091 C 
ATOM     87  O6  SGN d 904     -31.576  85.659  15.612  0.00  0.00    -0.254 OA
ATOM     88  O1S SGN d 904     -36.137  80.420  14.883  0.00  0.00    -0.296 OA
ATOM     89  C1  SGN d 904     -34.307  82.843  16.289  0.00  0.00     0.147 C 
ATOM     90  C4  SGN d 904     -31.610  83.253  17.218  0.00  0.00     0.095 C 
ATOM     91  C2  SGN d 904     -33.271  81.730  16.218  0.00  0.00     0.081 C 
ATOM     92  C6  SGN d 904     -32.043  85.687  16.959  0.00  0.00     0.067 C 
ATOM     93  S1  SGN d 904     -34.783  79.842  14.931  0.00  0.00     0.156 S 
ATOM     94  H   SGN d 904     -32.744  81.804  18.294  0.00  0.00     0.089 H 
ATOM     95  H   SGN d 904     -34.620  80.543  17.098  0.00  0.00     0.140 HD
ATOM     96  H   SGN d 904     -33.139  79.857  13.764  0.00  0.00     0.231 HD
ATOM     97  H   SGN d 904     -35.688  83.451  17.569  0.00  0.00     0.212 HD
ATOM     98  H   SGN d 904     -30.854  80.942  16.361  0.00  0.00     0.210 HD
ATOM     99  H   SGN d 904     -33.967  77.998  15.043  0.00  0.00     0.231 HD
ATOM    100  H   SGN d 904     -33.161  84.334  18.197  0.00  0.00     0.090 H 
ATOM    101  H   SGN d 904     -36.074  81.387  14.830  0.00  0.00     0.231 HD
ATOM    102  H   SGN d 904     -35.007  82.759  15.484  0.00  0.00     0.131 H 
ATOM    103  H   SGN d 904     -31.054  83.312  16.306  0.00  0.00     0.091 H 
ATOM    104  H   SGN d 904     -32.759  81.783  15.280  0.00  0.00     0.076 H 
ATOM    105  H   SGN d 904     -31.224  85.849  17.628  0.00  0.00     0.080 H 
ATOM    106  H   SGN d 904     -32.747  86.479  17.101  0.00  0.00     0.080 H 
ENDROOT
TORSDOF 33
ENDMDL
MODEL 15
REMARK VINA RESULT:      -7.6      4.596     12.726
REMARK  0 active torsions:
REMARK  status: ('A' for Active; 'I' for Inactive)
REMARK       I    between atoms: C3_1  and  O3_18 
REMARK       I    between atoms: O6_3  and  C6_41 
REMARK       I    between atoms: O6_3  and  S2_27 
REMARK       I    between atoms: C1_4  and  O1_67 
REMARK       I    between atoms: O2_6  and  C2_60 
REMARK       I    between atoms: O2_6  and  S_64 
REMARK       I    between atoms: C5_7  and  C6_41 
REMARK       I    between atoms: C6_9  and  C5_36 
REMARK       I    between atoms: N_10  and  C2_26 
REMARK       I    between atoms: N_10  and  S1_14 
REMARK       I    between atoms: O2_12  and  C2_39 
REMARK       I    between atoms: O2_12  and  S_34 
REMARK       I    between atoms: C3_13  and  O3_44 
REMARK       I    between atoms: S1_14  and  O1S_57 
REMARK       I    between atoms: S1_14  and  O2S_48 
REMARK       I    between atoms: S1_14  and  O3S_38 
REMARK       I    between atoms: C6_16  and  C5_68 
REMARK       I    between atoms: C4_17  and  O4_62 
REMARK       I    between atoms: N_21  and  C2_65 
REMARK       I    between atoms: N_21  and  S1_69 
REMARK       I    between atoms: C3_25  and  O3_30 
REMARK       I    between atoms: O3S_29  and  S1_69 
REMARK       I    between atoms: O4_31  and  C1_42 
REMARK       I    between atoms: O4_31  and  C4_63 
REMARK       I    between atoms: S2_35  and  O6_49 
REMARK       I    between atoms: O1_37  and  C1_61 
REMARK       I    between atoms: O2S_45  and  S1_69 
REMARK       I    between atoms: O3_46  and  C3_55 
REMARK       I    between atoms: C5_47  and  C6_66 
REMARK       I    between atoms: O6_49  and  C6_66 
REMARK       I    between atoms: O1S_52  and  S1_69 
REMARK       I    between atoms: C1_54  and  O4_62 
REMARK       I    between atoms: C4_59  and  O1_67 
ROOT
ATOM      1  C3  UAP d 901     -22.815  85.304  16.221  0.00  0.00     0.086 C 
ATOM      2  O1S UAP d 901     -23.363  89.625  17.861  0.00  0.00    -0.572 OA
ATOM      3  C6  UAP d 901     -24.581  84.179  13.214  0.00  0.00     0.233 C 
ATOM      4  O2  UAP d 901     -24.064  87.247  16.915  0.00  0.00    -0.244 OA
ATOM      5  O3  UAP d 901     -22.098  84.383  17.015  0.00  0.00    -0.389 OA
ATOM      6  O61 UAP d 901     -23.625  83.625  12.625  0.00  0.00    -0.642 OA
ATOM      7  O5  UAP d 901     -25.388  85.349  15.039  0.00  0.00    -0.311 OA
ATOM      8  O2S UAP d 901     -21.877  87.786  18.317  0.00  0.00    -0.572 OA
ATOM      9  S   UAP d 901     -23.289  88.190  18.194  0.00  0.00     0.252 S 
ATOM     10  C5  UAP d 901     -24.374  84.743  14.405  0.00  0.00     0.147 C 
ATOM     11  C2  UAP d 901     -24.037  85.823  16.980  0.00  0.00     0.135 C 
ATOM     12  O62 UAP d 901     -25.722  84.224  12.708  0.00  0.00    -0.642 OA
ATOM     13  O3S UAP d 901     -23.984  87.944  19.471  0.00  0.00    -0.572 OA
ATOM     14  C4  UAP d 901     -23.142  84.704  14.944  0.00  0.00    -0.034 C 
ATOM     15  C1  UAP d 901     -25.353  85.260  16.461  0.00  0.00     0.167 C 
ATOM     16  H   UAP d 901     -22.206  86.159  16.012  0.00  0.00     0.093 H 
ATOM     17  H   UAP d 901     -22.657  83.612  17.199  0.00  0.00     0.210 HD
ATOM     18  H   UAP d 901     -23.939  85.491  17.992  0.00  0.00     0.097 H 
ATOM     19  H   UAP d 901     -22.394  84.223  14.422  0.00  0.00     0.085 H 
ATOM     20  H   UAP d 901     -26.171  85.830  16.849  0.00  0.00     0.134 H 
ATOM     21  O1S IDS d 903     -33.749  77.731  22.188  0.00  0.00    -0.572 OA
ATOM     22  O2  IDS d 903     -31.564  78.399  20.853  0.00  0.00    -0.244 OA
ATOM     23  O5  IDS d 903     -28.007  78.338  20.401  0.00  0.00    -0.340 OA
ATOM     24  C6  IDS d 903     -26.321  79.965  20.067  0.00  0.00     0.206 C 
ATOM     25  O2S IDS d 903     -32.240  79.279  23.260  0.00  0.00    -0.572 OA
ATOM     26  C3  IDS d 903     -30.072  79.738  19.576  0.00  0.00     0.094 C 
ATOM     27  O3S IDS d 903     -33.590  80.003  21.396  0.00  0.00    -0.572 OA
ATOM     28  O3  IDS d 903     -31.106  80.673  19.360  0.00  0.00    -0.390 OA
ATOM     29  O61 IDS d 903     -25.830  81.098  20.226  0.00  0.00    -0.646 OA
ATOM     30  C1  IDS d 903     -29.225  77.954  21.059  0.00  0.00     0.161 C 
ATOM     31  C4  IDS d 903     -28.728  80.476  19.647  0.00  0.00     0.103 C 
ATOM     32  C2  IDS d 903     -30.295  79.042  20.898  0.00  0.00     0.134 C 
ATOM     33  S   IDS d 903     -32.837  78.870  21.976  0.00  0.00     0.252 S 
ATOM     34  C5  IDS d 903     -27.739  79.724  20.547  0.00  0.00     0.152 C 
ATOM     35  O62 IDS d 903     -25.697  79.017  19.538  0.00  0.00    -0.646 OA
ATOM     36  H   IDS d 903     -30.066  79.028  18.777  0.00  0.00     0.091 H 
ATOM     37  H   IDS d 903     -31.114  81.319  20.083  0.00  0.00     0.210 HD
ATOM     38  H   IDS d 903     -29.565  77.038  20.624  0.00  0.00     0.133 H 
ATOM     39  H   IDS d 903     -28.901  81.453  20.047  0.00  0.00     0.092 H 
ATOM     40  H   IDS d 903     -30.249  79.745  21.703  0.00  0.00     0.097 H 
ATOM     41  H   IDS d 903     -27.841  80.054  21.560  0.00  0.00     0.104 H 
ATOM     42  O6  SGN d 902     -28.666  85.465  17.679  0.00  0.00    -0.254 OA
ATOM     43  C1  SGN d 902     -28.825  81.433  17.429  0.00  0.00     0.150 C 
ATOM     44  C5  SGN d 902     -27.548  83.385  18.075  0.00  0.00     0.091 C 
ATOM     45  N   SGN d 902     -28.045  80.014  15.616  0.00  0.00    -0.210 NA
ATOM     46  S1  SGN d 902     -29.465  79.263  14.875  0.00  0.00     0.156 S 
ATOM     47  C4  SGN d 902     -26.815  83.382  16.733  0.00  0.00     0.095 C 
ATOM     48  O5S SGN d 902     -29.691  87.771  18.467  0.00  0.00    -0.572 OA
ATOM     49  C2  SGN d 902     -28.120  81.386  16.076  0.00  0.00     0.081 C 
ATOM     50  S2  SGN d 902     -28.672  87.225  17.550  0.00  0.00     0.251 S 
ATOM     51  O3S SGN d 902     -30.654  79.528  15.706  0.00  0.00    -0.296 OA
ATOM     52  C6  SGN d 902     -27.750  84.815  18.558  0.00  0.00     0.067 C 
ATOM     53  O3  SGN d 902     -26.062  81.935  14.966  0.00  0.00    -0.391 OA
ATOM     54  O2S SGN d 902     -29.672  79.831  13.530  0.00  0.00    -0.296 OA
ATOM     55  O6S SGN d 902     -27.341  87.746  17.916  0.00  0.00    -0.572 OA
ATOM     56  C3  SGN d 902     -26.713  81.953  16.216  0.00  0.00     0.083 C 
ATOM     57  O5  SGN d 902     -28.842  82.785  17.905  0.00  0.00    -0.349 OA
ATOM     58  O1S SGN d 902     -29.250  77.808  14.770  0.00  0.00    -0.296 OA
ATOM     59  O4S SGN d 902     -28.990  87.615  16.164  0.00  0.00    -0.572 OA
ATOM     60  O4  SGN d 902     -25.499  83.911  16.901  0.00  0.00    -0.348 OA
ATOM     61  O1  SGN d 902     -28.165  80.548  18.336  0.00  0.00    -0.348 OA
ATOM     62  H   SGN d 902     -29.840  81.107  17.339  0.00  0.00     0.131 H 
ATOM     63  H   SGN d 902     -26.966  82.840  18.789  0.00  0.00     0.090 H 
ATOM     64  H   SGN d 902     -27.796  79.444  16.424  0.00  0.00     0.140 HD
ATOM     65  H   SGN d 902     -27.357  83.984  16.034  0.00  0.00     0.091 H 
ATOM     66  H   SGN d 902     -28.670  81.968  15.367  0.00  0.00     0.076 H 
ATOM     67  H   SGN d 902     -30.520  79.155  16.591  0.00  0.00     0.231 HD
ATOM     68  H   SGN d 902     -28.147  84.807  19.552  0.00  0.00     0.080 H 
ATOM     69  H   SGN d 902     -26.815  85.335  18.564  0.00  0.00     0.080 H 
ATOM     70  H   SGN d 902     -25.167  82.298  15.063  0.00  0.00     0.210 HD
ATOM     71  H   SGN d 902     -28.891  79.657  12.981  0.00  0.00     0.231 HD
ATOM     72  H   SGN d 902     -26.146  81.359  16.902  0.00  0.00     0.089 H 
ATOM     73  H   SGN d 902     -28.467  77.636  14.222  0.00  0.00     0.231 HD
ATOM     74  O4S SGN d 904     -30.049  73.236  19.571  0.00  0.00    -0.572 OA
ATOM     75  O5S SGN d 904     -32.026  73.072  20.942  0.00  0.00    -0.572 OA
ATOM     76  C3  SGN d 904     -27.082  76.944  23.610  0.00  0.00     0.083 C 
ATOM     77  N   SGN d 904     -25.303  75.984  24.929  0.00  0.00    -0.210 NA
ATOM     78  O5  SGN d 904     -28.636  74.644  24.233  0.00  0.00    -0.350 OA
ATOM     79  O6S SGN d 904     -31.440  75.177  19.933  0.00  0.00    -0.572 OA
ATOM     80  O3S SGN d 904     -24.118  73.802  24.071  0.00  0.00    -0.296 OA
ATOM     81  O4  SGN d 904     -28.975  77.808  22.455  0.00  0.00    -0.348 OA
ATOM     82  S2  SGN d 904     -30.909  73.942  20.540  0.00  0.00     0.251 S 
ATOM     83  O1  SGN d 904     -27.804  75.740  26.146  0.00  0.00    -0.369 OA
ATOM     84  O3  SGN d 904     -26.149  77.582  22.768  0.00  0.00    -0.391 OA
ATOM     85  O2S SGN d 904     -22.825  75.260  25.500  0.00  0.00    -0.296 OA
ATOM     86  C5  SGN d 904     -29.297  75.805  23.719  0.00  0.00     0.091 C 
ATOM     87  O6  SGN d 904     -29.965  74.359  21.964  0.00  0.00    -0.254 OA
ATOM     88  O1S SGN d 904     -24.611  73.920  26.427  0.00  0.00    -0.296 OA
ATOM     89  C1  SGN d 904     -27.472  74.927  25.016  0.00  0.00     0.147 C 
ATOM     90  C4  SGN d 904     -28.336  76.589  22.826  0.00  0.00     0.095 C 
ATOM     91  C2  SGN d 904     -26.467  75.664  24.142  0.00  0.00     0.081 C 
ATOM     92  C6  SGN d 904     -30.471  75.319  22.890  0.00  0.00     0.067 C 
ATOM     93  S1  SGN d 904     -24.161  74.685  25.251  0.00  0.00     0.156 S 
ATOM     94  H   SGN d 904     -27.339  77.603  24.413  0.00  0.00     0.089 H 
ATOM     95  H   SGN d 904     -25.630  76.334  25.830  0.00  0.00     0.140 HD
ATOM     96  H   SGN d 904     -23.822  74.308  23.299  0.00  0.00     0.231 HD
ATOM     97  H   SGN d 904     -28.444  75.272  26.704  0.00  0.00     0.212 HD
ATOM     98  H   SGN d 904     -25.913  76.988  22.039  0.00  0.00     0.210 HD
ATOM     99  H   SGN d 904     -22.537  75.760  24.720  0.00  0.00     0.231 HD
ATOM    100  H   SGN d 904     -29.625  76.441  24.514  0.00  0.00     0.090 H 
ATOM    101  H   SGN d 904     -25.489  73.547  26.255  0.00  0.00     0.231 HD
ATOM    102  H   SGN d 904     -27.059  74.008  25.375  0.00  0.00     0.131 H 
ATOM    103  H   SGN d 904     -28.078  76.002  21.969  0.00  0.00     0.091 H 
ATOM    104  H   SGN d 904     -26.192  75.041  23.318  0.00  0.00     0.076 H 
ATOM    105  H   SGN d 904     -30.913  76.139  22.364  0.00  0.00     0.080 H 
ATOM    106  H   SGN d 904     -31.222  74.884  23.515  0.00  0.00     0.080 H 
ENDROOT
TORSDOF 33
ENDMDL
MODEL 16
REMARK VINA RESULT:      -7.5      5.175      7.829
REMARK  0 active torsions:
REMARK  status: ('A' for Active; 'I' for Inactive)
REMARK       I    between atoms: C3_1  and  O3_18 
REMARK       I    between atoms: O6_3  and  C6_41 
REMARK       I    between atoms: O6_3  and  S2_27 
REMARK       I    between atoms: C1_4  and  O1_67 
REMARK       I    between atoms: O2_6  and  C2_60 
REMARK       I    between atoms: O2_6  and  S_64 
REMARK       I    between atoms: C5_7  and  C6_41 
REMARK       I    between atoms: C6_9  and  C5_36 
REMARK       I    between atoms: N_10  and  C2_26 
REMARK       I    between atoms: N_10  and  S1_14 
REMARK       I    between atoms: O2_12  and  C2_39 
REMARK       I    between atoms: O2_12  and  S_34 
REMARK       I    between atoms: C3_13  and  O3_44 
REMARK       I    between atoms: S1_14  and  O1S_57 
REMARK       I    between atoms: S1_14  and  O2S_48 
REMARK       I    between atoms: S1_14  and  O3S_38 
REMARK       I    between atoms: C6_16  and  C5_68 
REMARK       I    between atoms: C4_17  and  O4_62 
REMARK       I    between atoms: N_21  and  C2_65 
REMARK       I    between atoms: N_21  and  S1_69 
REMARK       I    between atoms: C3_25  and  O3_30 
REMARK       I    between atoms: O3S_29  and  S1_69 
REMARK       I    between atoms: O4_31  and  C1_42 
REMARK       I    between atoms: O4_31  and  C4_63 
REMARK       I    between atoms: S2_35  and  O6_49 
REMARK       I    between atoms: O1_37  and  C1_61 
REMARK       I    between atoms: O2S_45  and  S1_69 
REMARK       I    between atoms: O3_46  and  C3_55 
REMARK       I    between atoms: C5_47  and  C6_66 
REMARK       I    between atoms: O6_49  and  C6_66 
REMARK       I    between atoms: O1S_52  and  S1_69 
REMARK       I    between atoms: C1_54  and  O4_62 
REMARK       I    between atoms: C4_59  and  O1_67 
ROOT
ATOM      1  C3  UAP d 901     -22.403  77.032  19.102  0.00  0.00     0.086 C 
ATOM      2  O1S UAP d 901     -21.329  76.481  23.596  0.00  0.00    -0.572 OA
ATOM      3  C6  UAP d 901     -20.408  79.203  16.927  0.00  0.00     0.233 C 
ATOM      4  O2  UAP d 901     -21.813  77.762  21.324  0.00  0.00    -0.244 OA
ATOM      5  O3  UAP d 901     -23.624  76.490  18.644  0.00  0.00    -0.389 OA
ATOM      6  O61 UAP d 901     -20.294  78.439  15.942  0.00  0.00    -0.642 OA
ATOM      7  O5  UAP d 901     -21.214  79.602  19.059  0.00  0.00    -0.311 OA
ATOM      8  O2S UAP d 901     -22.833  75.421  22.043  0.00  0.00    -0.572 OA
ATOM      9  S   UAP d 901     -22.405  76.711  22.615  0.00  0.00     0.252 S 
ATOM     10  C5  UAP d 901     -21.096  78.795  17.994  0.00  0.00     0.147 C 
ATOM     11  C2  UAP d 901     -22.657  78.052  20.212  0.00  0.00     0.135 C 
ATOM     12  O62 UAP d 901     -19.881  80.337  16.938  0.00  0.00    -0.642 OA
ATOM     13  O3S UAP d 901     -23.551  77.356  23.283  0.00  0.00    -0.572 OA
ATOM     14  C4  UAP d 901     -21.654  77.571  17.986  0.00  0.00    -0.034 C 
ATOM     15  C1  UAP d 901     -22.446  79.493  19.768  0.00  0.00     0.167 C 
ATOM     16  H   UAP d 901     -21.800  76.262  19.535  0.00  0.00     0.093 H 
ATOM     17  H   UAP d 901     -24.164  77.195  18.253  0.00  0.00     0.210 HD
ATOM     18  H   UAP d 901     -23.687  77.964  20.486  0.00  0.00     0.097 H 
ATOM     19  H   UAP d 901     -21.541  76.987  17.143  0.00  0.00     0.085 H 
ATOM     20  H   UAP d 901     -22.392  80.134  20.623  0.00  0.00     0.134 H 
ATOM     21  O1S IDS d 903     -30.767  88.967  18.795  0.00  0.00    -0.572 OA
ATOM     22  O2  IDS d 903     -29.446  86.783  18.099  0.00  0.00    -0.244 OA
ATOM     23  O5  IDS d 903     -29.360  83.370  17.003  0.00  0.00    -0.340 OA
ATOM     24  C6  IDS d 903     -28.301  81.386  17.743  0.00  0.00     0.206 C 
ATOM     25  O2S IDS d 903     -30.906  87.080  20.292  0.00  0.00    -0.572 OA
ATOM     26  C3  IDS d 903     -27.752  85.116  18.130  0.00  0.00     0.094 C 
ATOM     27  O3S IDS d 903     -28.863  88.354  20.140  0.00  0.00    -0.572 OA
ATOM     28  O3  IDS d 903     -26.980  85.925  18.991  0.00  0.00    -0.390 OA
ATOM     29  O61 IDS d 903     -27.841  80.643  18.630  0.00  0.00    -0.646 OA
ATOM     30  C1  IDS d 903     -30.031  84.596  17.334  0.00  0.00     0.161 C 
ATOM     31  C4  IDS d 903     -27.498  83.639  18.459  0.00  0.00     0.103 C 
ATOM     32  C2  IDS d 903     -29.218  85.402  18.356  0.00  0.00     0.134 C 
ATOM     33  S   IDS d 903     -30.025  87.839  19.386  0.00  0.00     0.252 S 
ATOM     34  C5  IDS d 903     -28.732  82.787  18.134  0.00  0.00     0.152 C 
ATOM     35  O62 IDS d 903     -28.433  81.029  16.551  0.00  0.00    -0.646 OA
ATOM     36  H   IDS d 903     -27.484  85.324  17.116  0.00  0.00     0.091 H 
ATOM     37  H   IDS d 903     -27.221  85.738  19.911  0.00  0.00     0.210 HD
ATOM     38  H   IDS d 903     -30.154  85.162  16.434  0.00  0.00     0.133 H 
ATOM     39  H   IDS d 903     -27.275  83.560  19.503  0.00  0.00     0.092 H 
ATOM     40  H   IDS d 903     -29.499  85.145  19.355  0.00  0.00     0.097 H 
ATOM     41  H   IDS d 903     -29.381  82.744  18.984  0.00  0.00     0.104 H 
ATOM     42  O6  SGN d 902     -23.105  82.586  21.350  0.00  0.00    -0.254 OA
ATOM     43  C1  SGN d 902     -25.121  83.666  18.017  0.00  0.00     0.150 C 
ATOM     44  C5  SGN d 902     -24.666  81.941  19.654  0.00  0.00     0.091 C 
ATOM     45  N   SGN d 902     -24.460  83.349  15.699  0.00  0.00    -0.210 NA
ATOM     46  S1  SGN d 902     -24.160  84.948  15.004  0.00  0.00     0.156 S 
ATOM     47  C4  SGN d 902     -23.607  81.319  18.741  0.00  0.00     0.095 C 
ATOM     48  O5S SGN d 902     -22.407  83.009  23.865  0.00  0.00    -0.572 OA
ATOM     49  C2  SGN d 902     -24.076  83.081  17.070  0.00  0.00     0.081 C 
ATOM     50  S2  SGN d 902     -22.022  82.203  22.690  0.00  0.00     0.251 S 
ATOM     51  O3S SGN d 902     -24.617  85.988  15.944  0.00  0.00    -0.296 OA
ATOM     52  C6  SGN d 902     -24.260  81.783  21.112  0.00  0.00     0.067 C 
ATOM     53  O3  SGN d 902     -22.998  81.032  16.434  0.00  0.00    -0.391 OA
ATOM     54  O2S SGN d 902     -22.716  85.111  14.759  0.00  0.00    -0.296 OA
ATOM     55  O6S SGN d 902     -22.131  80.767  23.012  0.00  0.00    -0.572 OA
ATOM     56  C3  SGN d 902     -23.978  81.577  17.287  0.00  0.00     0.083 C 
ATOM     57  O5  SGN d 902     -24.765  83.345  19.369  0.00  0.00    -0.349 OA
ATOM     58  O1S SGN d 902     -24.895  85.074  13.732  0.00  0.00    -0.296 OA
ATOM     59  O4S SGN d 902     -20.633  82.518  22.304  0.00  0.00    -0.572 OA
ATOM     60  O4  SGN d 902     -23.548  79.910  18.964  0.00  0.00    -0.348 OA
ATOM     61  O1  SGN d 902     -26.411  83.163  17.663  0.00  0.00    -0.348 OA
ATOM     62  H   SGN d 902     -25.155  84.732  17.933  0.00  0.00     0.131 H 
ATOM     63  H   SGN d 902     -25.602  81.450  19.482  0.00  0.00     0.090 H 
ATOM     64  H   SGN d 902     -25.464  83.181  15.635  0.00  0.00     0.140 HD
ATOM     65  H   SGN d 902     -22.655  81.757  18.957  0.00  0.00     0.091 H 
ATOM     66  H   SGN d 902     -23.125  83.532  17.267  0.00  0.00     0.076 H 
ATOM     67  H   SGN d 902     -25.568  85.882  16.107  0.00  0.00     0.231 HD
ATOM     68  H   SGN d 902     -25.060  82.104  21.747  0.00  0.00     0.080 H 
ATOM     69  H   SGN d 902     -24.043  80.756  21.323  0.00  0.00     0.080 H 
ATOM     70  H   SGN d 902     -22.941  80.074  16.577  0.00  0.00     0.210 HD
ATOM     71  H   SGN d 902     -22.413  84.428  14.141  0.00  0.00     0.231 HD
ATOM     72  H   SGN d 902     -24.917  81.114  17.066  0.00  0.00     0.089 H 
ATOM     73  H   SGN d 902     -24.593  84.388  13.115  0.00  0.00     0.231 HD
ATOM     74  O4S SGN d 904     -31.354  86.560  12.912  0.00  0.00    -0.572 OA
ATOM     75  O5S SGN d 904     -32.440  88.427  13.984  0.00  0.00    -0.572 OA
ATOM     76  C3  SGN d 904     -32.860  82.570  17.460  0.00  0.00     0.083 C 
ATOM     77  N   SGN d 904     -34.613  80.970  17.025  0.00  0.00    -0.210 NA
ATOM     78  O5  SGN d 904     -34.540  84.557  16.311  0.00  0.00    -0.350 OA
ATOM     79  O6S SGN d 904     -30.478  87.451  14.980  0.00  0.00    -0.572 OA
ATOM     80  O3S SGN d 904     -35.196  80.367  14.535  0.00  0.00    -0.296 OA
ATOM     81  O4  SGN d 904     -31.288  84.293  17.935  0.00  0.00    -0.348 OA
ATOM     82  S2  SGN d 904     -31.705  87.171  14.209  0.00  0.00     0.251 S 
ATOM     83  O1  SGN d 904     -35.578  83.374  18.064  0.00  0.00    -0.369 OA
ATOM     84  O3  SGN d 904     -31.875  81.575  17.295  0.00  0.00    -0.391 OA
ATOM     85  O2S SGN d 904     -35.665  78.686  16.206  0.00  0.00    -0.296 OA
ATOM     86  C5  SGN d 904     -33.423  84.973  17.104  0.00  0.00     0.091 C 
ATOM     87  O6  SGN d 904     -32.721  86.064  15.122  0.00  0.00    -0.254 OA
ATOM     88  O1S SGN d 904     -37.049  80.661  16.047  0.00  0.00    -0.296 OA
ATOM     89  C1  SGN d 904     -35.116  83.310  16.712  0.00  0.00     0.147 C 
ATOM     90  C4  SGN d 904     -32.316  83.921  17.021  0.00  0.00     0.095 C 
ATOM     91  C2  SGN d 904     -34.054  82.226  16.592  0.00  0.00     0.081 C 
ATOM     92  C6  SGN d 904     -32.922  86.278  16.517  0.00  0.00     0.067 C 
ATOM     93  S1  SGN d 904     -35.681  80.131  15.906  0.00  0.00     0.156 S 
ATOM     94  H   SGN d 904     -33.142  82.617  18.492  0.00  0.00     0.089 H 
ATOM     95  H   SGN d 904     -35.142  81.147  17.878  0.00  0.00     0.140 HD
ATOM     96  H   SGN d 904     -34.296  80.016  14.446  0.00  0.00     0.231 HD
ATOM     97  H   SGN d 904     -36.255  84.064  18.143  0.00  0.00     0.212 HD
ATOM     98  H   SGN d 904     -31.616  81.529  16.362  0.00  0.00     0.210 HD
ATOM     99  H   SGN d 904     -34.761  78.345  16.110  0.00  0.00     0.231 HD
ATOM    100  H   SGN d 904     -33.706  85.094  18.128  0.00  0.00     0.090 H 
ATOM    101  H   SGN d 904     -37.050  81.611  15.849  0.00  0.00     0.231 HD
ATOM    102  H   SGN d 904     -35.952  83.091  16.081  0.00  0.00     0.131 H 
ATOM    103  H   SGN d 904     -31.950  83.860  16.018  0.00  0.00     0.091 H 
ATOM    104  H   SGN d 904     -33.736  82.154  15.574  0.00  0.00     0.076 H 
ATOM    105  H   SGN d 904     -31.999  86.558  16.981  0.00  0.00     0.080 H 
ATOM    106  H   SGN d 904     -33.627  87.065  16.684  0.00  0.00     0.080 H 
ENDROOT
TORSDOF 33
ENDMDL
MODEL 17
REMARK VINA RESULT:      -7.5      5.218      9.778
REMARK  0 active torsions:
REMARK  status: ('A' for Active; 'I' for Inactive)
REMARK       I    between atoms: C3_1  and  O3_18 
REMARK       I    between atoms: O6_3  and  C6_41 
REMARK       I    between atoms: O6_3  and  S2_27 
REMARK       I    between atoms: C1_4  and  O1_67 
REMARK       I    between atoms: O2_6  and  C2_60 
REMARK       I    between atoms: O2_6  and  S_64 
REMARK       I    between atoms: C5_7  and  C6_41 
REMARK       I    between atoms: C6_9  and  C5_36 
REMARK       I    between atoms: N_10  and  C2_26 
REMARK       I    between atoms: N_10  and  S1_14 
REMARK       I    between atoms: O2_12  and  C2_39 
REMARK       I    between atoms: O2_12  and  S_34 
REMARK       I    between atoms: C3_13  and  O3_44 
REMARK       I    between atoms: S1_14  and  O1S_57 
REMARK       I    between atoms: S1_14  and  O2S_48 
REMARK       I    between atoms: S1_14  and  O3S_38 
REMARK       I    between atoms: C6_16  and  C5_68 
REMARK       I    between atoms: C4_17  and  O4_62 
REMARK       I    between atoms: N_21  and  C2_65 
REMARK       I    between atoms: N_21  and  S1_69 
REMARK       I    between atoms: C3_25  and  O3_30 
REMARK       I    between atoms: O3S_29  and  S1_69 
REMARK       I    between atoms: O4_31  and  C1_42 
REMARK       I    between atoms: O4_31  and  C4_63 
REMARK       I    between atoms: S2_35  and  O6_49 
REMARK       I    between atoms: O1_37  and  C1_61 
REMARK       I    between atoms: O2S_45  and  S1_69 
REMARK       I    between atoms: O3_46  and  C3_55 
REMARK       I    between atoms: C5_47  and  C6_66 
REMARK       I    between atoms: O6_49  and  C6_66 
REMARK       I    between atoms: O1S_52  and  S1_69 
REMARK       I    between atoms: C1_54  and  O4_62 
REMARK       I    between atoms: C4_59  and  O1_67 
ROOT
ATOM      1  C3  UAP d 901     -21.526  78.960  23.563  0.00  0.00     0.086 C 
ATOM      2  O1S UAP d 901     -21.428  81.229  27.625  0.00  0.00    -0.572 OA
ATOM      3  C6  UAP d 901     -20.152  80.464  20.517  0.00  0.00     0.233 C 
ATOM      4  O2  UAP d 901     -21.840  80.847  25.032  0.00  0.00    -0.244 OA
ATOM      5  O3  UAP d 901     -22.265  77.759  23.495  0.00  0.00    -0.389 OA
ATOM      6  O61 UAP d 901     -19.501  79.482  20.094  0.00  0.00    -0.642 OA
ATOM      7  O5  UAP d 901     -21.535  81.397  22.120  0.00  0.00    -0.311 OA
ATOM      8  O2S UAP d 901     -21.939  78.984  26.918  0.00  0.00    -0.572 OA
ATOM      9  S   UAP d 901     -22.234  80.412  26.699  0.00  0.00     0.252 S 
ATOM     10  C5  UAP d 901     -20.843  80.348  21.652  0.00  0.00     0.147 C 
ATOM     11  C2  UAP d 901     -22.436  80.123  23.959  0.00  0.00     0.135 C 
ATOM     12  O62 UAP d 901     -20.161  81.554  19.906  0.00  0.00    -0.642 OA
ATOM     13  O3S UAP d 901     -23.667  80.660  26.943  0.00  0.00    -0.572 OA
ATOM     14  C4  UAP d 901     -20.824  79.178  22.315  0.00  0.00    -0.034 C 
ATOM     15  C1  UAP d 901     -22.741  81.070  22.806  0.00  0.00     0.167 C 
ATOM     16  H   UAP d 901     -20.781  78.889  24.327  0.00  0.00     0.093 H 
ATOM     17  H   UAP d 901     -22.937  77.832  22.800  0.00  0.00     0.210 HD
ATOM     18  H   UAP d 901     -23.371  79.698  24.260  0.00  0.00     0.097 H 
ATOM     19  H   UAP d 901     -20.282  78.397  21.914  0.00  0.00     0.085 H 
ATOM     20  H   UAP d 901     -23.164  81.978  23.182  0.00  0.00     0.134 H 
ATOM     21  O1S IDS d 903     -33.739  83.599  17.097  0.00  0.00    -0.572 OA
ATOM     22  O2  IDS d 903     -31.509  82.288  17.651  0.00  0.00    -0.244 OA
ATOM     23  O5  IDS d 903     -29.759  79.292  18.555  0.00  0.00    -0.340 OA
ATOM     24  C6  IDS d 903     -28.185  78.694  20.218  0.00  0.00     0.206 C 
ATOM     25  O2S IDS d 903     -33.438  82.865  19.375  0.00  0.00    -0.572 OA
ATOM     26  C3  IDS d 903     -29.338  81.886  18.531  0.00  0.00     0.094 C 
ATOM     27  O3S IDS d 903     -32.134  84.703  18.516  0.00  0.00    -0.572 OA
ATOM     28  O3  IDS d 903     -29.200  83.263  18.806  0.00  0.00    -0.390 OA
ATOM     29  O61 IDS d 903     -27.684  78.793  21.354  0.00  0.00    -0.646 OA
ATOM     30  C1  IDS d 903     -30.935  80.032  18.192  0.00  0.00     0.161 C 
ATOM     31  C4  IDS d 903     -28.582  81.079  19.595  0.00  0.00     0.103 C 
ATOM     32  C2  IDS d 903     -30.798  81.505  18.603  0.00  0.00     0.134 C 
ATOM     33  S   IDS d 903     -32.762  83.407  18.183  0.00  0.00     0.252 S 
ATOM     34  C5  IDS d 903     -29.236  79.707  19.807  0.00  0.00     0.152 C 
ATOM     35  O62 IDS d 903     -27.867  77.795  19.407  0.00  0.00    -0.646 OA
ATOM     36  H   IDS d 903     -28.946  81.679  17.558  0.00  0.00     0.091 H 
ATOM     37  H   IDS d 903     -29.555  83.453  19.688  0.00  0.00     0.210 HD
ATOM     38  H   IDS d 903     -31.062  79.958  17.131  0.00  0.00     0.133 H 
ATOM     39  H   IDS d 903     -28.603  81.628  20.513  0.00  0.00     0.092 H 
ATOM     40  H   IDS d 903     -31.177  81.662  19.590  0.00  0.00     0.097 H 
ATOM     41  H   IDS d 903     -29.992  79.774  20.562  0.00  0.00     0.104 H 
ATOM     42  O6  SGN d 902     -24.978  83.791  22.497  0.00  0.00    -0.254 OA
ATOM     43  C1  SGN d 902     -26.400  82.020  19.152  0.00  0.00     0.150 C 
ATOM     44  C5  SGN d 902     -25.677  81.756  21.448  0.00  0.00     0.091 C 
ATOM     45  N   SGN d 902     -25.134  80.989  17.352  0.00  0.00    -0.210 NA
ATOM     46  S1  SGN d 902     -25.367  81.973  15.901  0.00  0.00     0.156 S 
ATOM     47  C4  SGN d 902     -24.272  81.365  20.987  0.00  0.00     0.095 C 
ATOM     48  O5S SGN d 902     -25.141  85.645  24.376  0.00  0.00    -0.572 OA
ATOM     49  C2  SGN d 902     -25.013  81.634  18.643  0.00  0.00     0.081 C 
ATOM     50  S2  SGN d 902     -24.189  84.670  23.808  0.00  0.00     0.251 S 
ATOM     51  O3S SGN d 902     -26.423  82.972  16.147  0.00  0.00    -0.296 OA
ATOM     52  C6  SGN d 902     -25.603  82.535  22.754  0.00  0.00     0.067 C 
ATOM     53  O3  SGN d 902     -23.067  80.335  19.180  0.00  0.00    -0.391 OA
ATOM     54  O2S SGN d 902     -24.107  82.665  15.573  0.00  0.00    -0.296 OA
ATOM     55  O6S SGN d 902     -23.767  83.717  24.852  0.00  0.00    -0.572 OA
ATOM     56  C3  SGN d 902     -24.357  80.678  19.631  0.00  0.00     0.083 C 
ATOM     57  O5  SGN d 902     -26.278  82.604  20.457  0.00  0.00    -0.349 OA
ATOM     58  O1S SGN d 902     -25.760  81.104  14.777  0.00  0.00    -0.296 OA
ATOM     59  O4S SGN d 902     -23.007  85.379  23.281  0.00  0.00    -0.572 OA
ATOM     60  O4  SGN d 902     -23.690  80.464  21.930  0.00  0.00    -0.348 OA
ATOM     61  O1  SGN d 902     -27.241  80.865  19.154  0.00  0.00    -0.348 OA
ATOM     62  H   SGN d 902     -26.851  82.748  18.511  0.00  0.00     0.131 H 
ATOM     63  H   SGN d 902     -26.255  80.866  21.588  0.00  0.00     0.090 H 
ATOM     64  H   SGN d 902     -25.931  80.355  17.411  0.00  0.00     0.140 HD
ATOM     65  H   SGN d 902     -23.668  82.246  20.912  0.00  0.00     0.091 H 
ATOM     66  H   SGN d 902     -24.412  82.514  18.545  0.00  0.00     0.076 H 
ATOM     67  H   SGN d 902     -27.253  82.519  16.363  0.00  0.00     0.231 HD
ATOM     68  H   SGN d 902     -26.591  82.694  23.136  0.00  0.00     0.080 H 
ATOM     69  H   SGN d 902     -25.038  81.985  23.477  0.00  0.00     0.080 H 
ATOM     70  H   SGN d 902     -22.654  79.727  19.814  0.00  0.00     0.210 HD
ATOM     71  H   SGN d 902     -23.410  82.010  15.411  0.00  0.00     0.231 HD
ATOM     72  H   SGN d 902     -24.937  79.783  19.714  0.00  0.00     0.089 H 
ATOM     73  H   SGN d 902     -25.064  80.447  14.617  0.00  0.00     0.231 HD
ATOM     74  O4S SGN d 904     -31.853  78.720  13.438  0.00  0.00    -0.572 OA
ATOM     75  O5S SGN d 904     -33.836  80.090  13.367  0.00  0.00    -0.572 OA
ATOM     76  C3  SGN d 904     -32.611  77.253  19.451  0.00  0.00     0.083 C 
ATOM     77  N   SGN d 904     -33.385  75.030  19.982  0.00  0.00    -0.210 NA
ATOM     78  O5  SGN d 904     -34.635  77.360  17.454  0.00  0.00    -0.350 OA
ATOM     79  O6S SGN d 904     -31.946  80.787  14.685  0.00  0.00    -0.572 OA
ATOM     80  O3S SGN d 904     -33.052  73.111  18.218  0.00  0.00    -0.296 OA
ATOM     81  O4  SGN d 904     -32.057  79.499  18.891  0.00  0.00    -0.348 OA
ATOM     82  S2  SGN d 904     -32.724  79.626  14.212  0.00  0.00     0.251 S 
ATOM     83  O1  SGN d 904     -35.476  76.837  19.592  0.00  0.00    -0.369 OA
ATOM     84  O3  SGN d 904     -31.295  76.912  19.822  0.00  0.00    -0.391 OA
ATOM     85  O2S SGN d 904     -33.168  72.454  20.541  0.00  0.00    -0.296 OA
ATOM     86  C5  SGN d 904     -34.015  78.581  17.874  0.00  0.00     0.091 C 
ATOM     87  O6  SGN d 904     -33.377  78.765  15.600  0.00  0.00    -0.254 OA
ATOM     88  O1S SGN d 904     -35.163  73.171  19.380  0.00  0.00    -0.296 OA
ATOM     89  C1  SGN d 904     -34.721  76.361  18.475  0.00  0.00     0.147 C 
ATOM     90  C4  SGN d 904     -32.588  78.296  18.343  0.00  0.00     0.095 C 
ATOM     91  C2  SGN d 904     -33.311  76.012  18.931  0.00  0.00     0.081 C 
ATOM     92  C6  SGN d 904     -33.975  79.498  16.668  0.00  0.00     0.067 C 
ATOM     93  S1  SGN d 904     -33.709  73.365  19.513  0.00  0.00     0.156 S 
ATOM     94  H   SGN d 904     -33.125  77.649  20.302  0.00  0.00     0.089 H 
ATOM     95  H   SGN d 904     -34.128  75.318  20.620  0.00  0.00     0.140 HD
ATOM     96  H   SGN d 904     -32.096  73.240  18.310  0.00  0.00     0.231 HD
ATOM     97  H   SGN d 904     -36.375  77.060  19.304  0.00  0.00     0.212 HD
ATOM     98  H   SGN d 904     -30.825  76.553  19.053  0.00  0.00     0.210 HD
ATOM     99  H   SGN d 904     -32.210  72.589  20.622  0.00  0.00     0.231 HD
ATOM    100  H   SGN d 904     -34.559  79.027  18.680  0.00  0.00     0.090 H 
ATOM    101  H   SGN d 904     -35.510  73.773  18.703  0.00  0.00     0.231 HD
ATOM    102  H   SGN d 904     -35.214  75.498  18.080  0.00  0.00     0.131 H 
ATOM    103  H   SGN d 904     -32.001  77.943  17.521  0.00  0.00     0.091 H 
ATOM    104  H   SGN d 904     -32.758  75.621  18.103  0.00  0.00     0.076 H 
ATOM    105  H   SGN d 904     -33.391  80.367  16.887  0.00  0.00     0.080 H 
ATOM    106  H   SGN d 904     -34.960  79.820  16.403  0.00  0.00     0.080 H 
ENDROOT
TORSDOF 33
ENDMDL
MODEL 18
REMARK VINA RESULT:      -7.5      4.899      8.130
REMARK  0 active torsions:
REMARK  status: ('A' for Active; 'I' for Inactive)
REMARK       I    between atoms: C3_1  and  O3_18 
REMARK       I    between atoms: O6_3  and  C6_41 
REMARK       I    between atoms: O6_3  and  S2_27 
REMARK       I    between atoms: C1_4  and  O1_67 
REMARK       I    between atoms: O2_6  and  C2_60 
REMARK       I    between atoms: O2_6  and  S_64 
REMARK       I    between atoms: C5_7  and  C6_41 
REMARK       I    between atoms: C6_9  and  C5_36 
REMARK       I    between atoms: N_10  and  C2_26 
REMARK       I    between atoms: N_10  and  S1_14 
REMARK       I    between atoms: O2_12  and  C2_39 
REMARK       I    between atoms: O2_12  and  S_34 
REMARK       I    between atoms: C3_13  and  O3_44 
REMARK       I    between atoms: S1_14  and  O1S_57 
REMARK       I    between atoms: S1_14  and  O2S_48 
REMARK       I    between atoms: S1_14  and  O3S_38 
REMARK       I    between atoms: C6_16  and  C5_68 
REMARK       I    between atoms: C4_17  and  O4_62 
REMARK       I    between atoms: N_21  and  C2_65 
REMARK       I    between atoms: N_21  and  S1_69 
REMARK       I    between atoms: C3_25  and  O3_30 
REMARK       I    between atoms: O3S_29  and  S1_69 
REMARK       I    between atoms: O4_31  and  C1_42 
REMARK       I    between atoms: O4_31  and  C4_63 
REMARK       I    between atoms: S2_35  and  O6_49 
REMARK       I    between atoms: O1_37  and  C1_61 
REMARK       I    between atoms: O2S_45  and  S1_69 
REMARK       I    between atoms: O3_46  and  C3_55 
REMARK       I    between atoms: C5_47  and  C6_66 
REMARK       I    between atoms: O6_49  and  C6_66 
REMARK       I    between atoms: O1S_52  and  S1_69 
REMARK       I    between atoms: C1_54  and  O4_62 
REMARK       I    between atoms: C4_59  and  O1_67 
ROOT
ATOM      1  C3  UAP d 901     -37.033  81.073  16.299  0.00  0.00     0.086 C 
ATOM      2  O1S UAP d 901     -39.764  77.625  17.821  0.00  0.00    -0.572 OA
ATOM      3  C6  UAP d 901     -34.469  80.476  13.750  0.00  0.00     0.233 C 
ATOM      4  O2  UAP d 901     -37.519  78.864  17.138  0.00  0.00    -0.244 OA
ATOM      5  O3  UAP d 901     -37.091  82.309  16.978  0.00  0.00    -0.389 OA
ATOM      6  O61 UAP d 901     -34.701  81.459  13.010  0.00  0.00    -0.642 OA
ATOM      7  O5  UAP d 901     -34.970  79.245  15.644  0.00  0.00    -0.311 OA
ATOM      8  O2S UAP d 901     -39.722  80.021  18.059  0.00  0.00    -0.572 OA
ATOM      9  S   UAP d 901     -38.932  78.784  18.196  0.00  0.00     0.252 S 
ATOM     10  C5  UAP d 901     -35.202  80.302  14.850  0.00  0.00     0.147 C 
ATOM     11  C2  UAP d 901     -36.614  79.958  17.259  0.00  0.00     0.135 C 
ATOM     12  O62 UAP d 901     -33.574  79.649  13.476  0.00  0.00    -0.642 OA
ATOM     13  O3S UAP d 901     -38.487  78.638  19.595  0.00  0.00    -0.572 OA
ATOM     14  C4  UAP d 901     -36.173  81.187  15.139  0.00  0.00    -0.034 C 
ATOM     15  C1  UAP d 901     -35.188  79.473  17.034  0.00  0.00     0.167 C 
ATOM     16  H   UAP d 901     -38.004  80.807  15.938  0.00  0.00     0.093 H 
ATOM     17  H   UAP d 901     -36.207  82.542  17.301  0.00  0.00     0.210 HD
ATOM     18  H   UAP d 901     -36.645  80.369  18.246  0.00  0.00     0.097 H 
ATOM     19  H   UAP d 901     -36.312  81.986  14.502  0.00  0.00     0.085 H 
ATOM     20  H   UAP d 901     -35.032  78.548  17.549  0.00  0.00     0.134 H 
ATOM     21  O1S IDS d 903     -25.097  80.207  24.623  0.00  0.00    -0.572 OA
ATOM     22  O2  IDS d 903     -26.901  81.002  22.858  0.00  0.00    -0.244 OA
ATOM     23  O5  IDS d 903     -29.384  83.324  21.721  0.00  0.00    -0.340 OA
ATOM     24  C6  IDS d 903     -31.631  83.169  20.991  0.00  0.00     0.206 C 
ATOM     25  O2S IDS d 903     -27.409  80.131  25.309  0.00  0.00    -0.572 OA
ATOM     26  C3  IDS d 903     -28.649  80.845  21.256  0.00  0.00     0.094 C 
ATOM     27  O3S IDS d 903     -26.568  78.527  23.716  0.00  0.00    -0.572 OA
ATOM     28  O3  IDS d 903     -28.469  79.447  21.205  0.00  0.00    -0.390 OA
ATOM     29  O61 IDS d 903     -32.764  82.654  21.001  0.00  0.00    -0.646 OA
ATOM     30  C1  IDS d 903     -28.357  82.882  22.622  0.00  0.00     0.161 C 
ATOM     31  C4  IDS d 903     -30.131  81.174  21.028  0.00  0.00     0.103 C 
ATOM     32  C2  IDS d 903     -28.261  81.350  22.625  0.00  0.00     0.134 C 
ATOM     33  S   IDS d 903     -26.476  79.925  24.187  0.00  0.00     0.252 S 
ATOM     34  C5  IDS d 903     -30.519  82.472  21.750  0.00  0.00     0.152 C 
ATOM     35  O62 IDS d 903     -31.371  84.238  20.392  0.00  0.00    -0.646 OA
ATOM     36  H   IDS d 903     -28.045  81.306  20.503  0.00  0.00     0.091 H 
ATOM     37  H   IDS d 903     -29.016  79.026  21.886  0.00  0.00     0.210 HD
ATOM     38  H   IDS d 903     -27.427  83.307  22.302  0.00  0.00     0.133 H 
ATOM     39  H   IDS d 903     -30.718  80.366  21.411  0.00  0.00     0.092 H 
ATOM     40  H   IDS d 903     -28.899  80.929  23.373  0.00  0.00     0.097 H 
ATOM     41  H   IDS d 903     -30.840  82.255  22.747  0.00  0.00     0.104 H 
ATOM     42  O6  SGN d 902     -33.112  77.275  18.867  0.00  0.00    -0.254 OA
ATOM     43  C1  SGN d 902     -30.298  80.178  18.832  0.00  0.00     0.150 C 
ATOM     44  C5  SGN d 902     -32.632  79.606  19.129  0.00  0.00     0.091 C 
ATOM     45  N   SGN d 902     -29.616  81.578  16.966  0.00  0.00    -0.210 NA
ATOM     46  S1  SGN d 902     -27.952  81.145  16.552  0.00  0.00     0.156 S 
ATOM     47  C4  SGN d 902     -32.930  79.957  17.670  0.00  0.00     0.095 C 
ATOM     48  O5S SGN d 902     -34.018  74.948  19.738  0.00  0.00    -0.572 OA
ATOM     49  C2  SGN d 902     -30.545  80.543  17.371  0.00  0.00     0.081 C 
ATOM     50  S2  SGN d 902     -34.243  75.936  18.664  0.00  0.00     0.251 S 
ATOM     51  O3S SGN d 902     -27.403  80.250  17.587  0.00  0.00    -0.296 OA
ATOM     52  C6  SGN d 902     -33.510  78.446  19.578  0.00  0.00     0.067 C 
ATOM     53  O3  SGN d 902     -32.218  81.365  15.856  0.00  0.00    -0.391 OA
ATOM     54  O2S SGN d 902     -27.937  80.453  15.250  0.00  0.00    -0.296 OA
ATOM     55  O6S SGN d 902     -35.625  76.447  18.738  0.00  0.00    -0.572 OA
ATOM     56  C3  SGN d 902     -31.973  81.048  17.207  0.00  0.00     0.083 C 
ATOM     57  O5  SGN d 902     -31.260  79.196  19.242  0.00  0.00    -0.349 OA
ATOM     58  O1S SGN d 902     -27.133  82.369  16.472  0.00  0.00    -0.296 OA
ATOM     59  O4S SGN d 902     -34.022  75.301  17.351  0.00  0.00    -0.572 OA
ATOM     60  O4  SGN d 902     -34.271  80.434  17.554  0.00  0.00    -0.348 OA
ATOM     61  O1  SGN d 902     -30.359  81.361  19.631  0.00  0.00    -0.348 OA
ATOM     62  H   SGN d 902     -29.325  79.752  18.958  0.00  0.00     0.131 H 
ATOM     63  H   SGN d 902     -32.825  80.465  19.737  0.00  0.00     0.090 H 
ATOM     64  H   SGN d 902     -29.566  82.248  17.735  0.00  0.00     0.140 HD
ATOM     65  H   SGN d 902     -32.806  79.084  17.065  0.00  0.00     0.091 H 
ATOM     66  H   SGN d 902     -30.401  79.678  16.758  0.00  0.00     0.076 H 
ATOM     67  H   SGN d 902     -27.411  80.703  18.445  0.00  0.00     0.231 HD
ATOM     68  H   SGN d 902     -33.390  78.288  20.630  0.00  0.00     0.080 H 
ATOM     69  H   SGN d 902     -34.538  78.665  19.377  0.00  0.00     0.080 H 
ATOM     70  H   SGN d 902     -33.128  81.686  15.759  0.00  0.00     0.210 HD
ATOM     71  H   SGN d 902     -28.298  81.040  14.567  0.00  0.00     0.231 HD
ATOM     72  H   SGN d 902     -32.118  81.930  17.795  0.00  0.00     0.089 H 
ATOM     73  H   SGN d 902     -27.496  82.956  15.790  0.00  0.00     0.231 HD
ATOM     74  O4S SGN d 904     -24.386  85.747  21.535  0.00  0.00    -0.572 OA
ATOM     75  O5S SGN d 904     -23.073  84.713  23.272  0.00  0.00    -0.572 OA
ATOM     76  C3  SGN d 904     -29.710  85.285  24.745  0.00  0.00     0.083 C 
ATOM     77  N   SGN d 904     -30.613  87.295  25.732  0.00  0.00    -0.210 NA
ATOM     78  O5  SGN d 904     -27.169  86.061  25.762  0.00  0.00    -0.350 OA
ATOM     79  O6S SGN d 904     -24.709  83.415  22.075  0.00  0.00    -0.572 OA
ATOM     80  O3S SGN d 904     -29.894  89.625  24.755  0.00  0.00    -0.296 OA
ATOM     81  O4  SGN d 904     -28.689  83.289  23.946  0.00  0.00    -0.348 OA
ATOM     82  S2  SGN d 904     -24.392  84.749  22.621  0.00  0.00     0.251 S 
ATOM     83  O1  SGN d 904     -28.836  85.964  27.424  0.00  0.00    -0.369 OA
ATOM     84  O3  SGN d 904     -30.665  85.334  23.709  0.00  0.00    -0.391 OA
ATOM     85  O2S SGN d 904     -32.052  89.511  25.837  0.00  0.00    -0.296 OA
ATOM     86  C5  SGN d 904     -27.358  84.707  25.336  0.00  0.00     0.091 C 
ATOM     87  O6  SGN d 904     -25.609  85.189  23.813  0.00  0.00    -0.254 OA
ATOM     88  O1S SGN d 904     -30.026  89.442  27.155  0.00  0.00    -0.296 OA
ATOM     89  C1  SGN d 904     -28.345  86.682  26.289  0.00  0.00     0.147 C 
ATOM     90  C4  SGN d 904     -28.421  84.658  24.238  0.00  0.00     0.095 C 
ATOM     91  C2  SGN d 904     -29.412  86.700  25.203  0.00  0.00     0.081 C 
ATOM     92  C6  SGN d 904     -26.033  84.227  24.776  0.00  0.00     0.067 C 
ATOM     93  S1  SGN d 904     -30.651  89.047  25.880  0.00  0.00     0.156 S 
ATOM     94  H   SGN d 904     -30.098  84.700  25.553  0.00  0.00     0.089 H 
ATOM     95  H   SGN d 904     -30.764  86.905  26.663  0.00  0.00     0.140 HD
ATOM     96  H   SGN d 904     -30.308  89.363  23.919  0.00  0.00     0.231 HD
ATOM     97  H   SGN d 904     -28.158  85.952  28.117  0.00  0.00     0.212 HD
ATOM     98  H   SGN d 904     -30.318  85.863  22.975  0.00  0.00     0.210 HD
ATOM     99  H   SGN d 904     -32.454  89.247  24.995  0.00  0.00     0.231 HD
ATOM    100  H   SGN d 904     -27.677  84.091  26.151  0.00  0.00     0.090 H 
ATOM    101  H   SGN d 904     -29.107  89.133  27.175  0.00  0.00     0.231 HD
ATOM    102  H   SGN d 904     -28.106  87.678  26.600  0.00  0.00     0.131 H 
ATOM    103  H   SGN d 904     -28.072  85.185  23.375  0.00  0.00     0.091 H 
ATOM    104  H   SGN d 904     -29.058  87.269  24.369  0.00  0.00     0.076 H 
ATOM    105  H   SGN d 904     -26.156  83.271  24.311  0.00  0.00     0.080 H 
ATOM    106  H   SGN d 904     -25.307  84.123  25.555  0.00  0.00     0.080 H 
ENDROOT
TORSDOF 33
ENDMDL
MODEL 19
REMARK VINA RESULT:      -7.5      3.882      5.742
REMARK  0 active torsions:
REMARK  status: ('A' for Active; 'I' for Inactive)
REMARK       I    between atoms: C3_1  and  O3_18 
REMARK       I    between atoms: O6_3  and  C6_41 
REMARK       I    between atoms: O6_3  and  S2_27 
REMARK       I    between atoms: C1_4  and  O1_67 
REMARK       I    between atoms: O2_6  and  C2_60 
REMARK       I    between atoms: O2_6  and  S_64 
REMARK       I    between atoms: C5_7  and  C6_41 
REMARK       I    between atoms: C6_9  and  C5_36 
REMARK       I    between atoms: N_10  and  C2_26 
REMARK       I    between atoms: N_10  and  S1_14 
REMARK       I    between atoms: O2_12  and  C2_39 
REMARK       I    between atoms: O2_12  and  S_34 
REMARK       I    between atoms: C3_13  and  O3_44 
REMARK       I    between atoms: S1_14  and  O1S_57 
REMARK       I    between atoms: S1_14  and  O2S_48 
REMARK       I    between atoms: S1_14  and  O3S_38 
REMARK       I    between atoms: C6_16  and  C5_68 
REMARK       I    between atoms: C4_17  and  O4_62 
REMARK       I    between atoms: N_21  and  C2_65 
REMARK       I    between atoms: N_21  and  S1_69 
REMARK       I    between atoms: C3_25  and  O3_30 
REMARK       I    between atoms: O3S_29  and  S1_69 
REMARK       I    between atoms: O4_31  and  C1_42 
REMARK       I    between atoms: O4_31  and  C4_63 
REMARK       I    between atoms: S2_35  and  O6_49 
REMARK       I    between atoms: O1_37  and  C1_61 
REMARK       I    between atoms: O2S_45  and  S1_69 
REMARK       I    between atoms: O3_46  and  C3_55 
REMARK       I    between atoms: C5_47  and  C6_66 
REMARK       I    between atoms: O6_49  and  C6_66 
REMARK       I    between atoms: O1S_52  and  S1_69 
REMARK       I    between atoms: C1_54  and  O4_62 
REMARK       I    between atoms: C4_59  and  O1_67 
ROOT
ATOM      1  C3  UAP d 901     -37.879  78.097  22.417  0.00  0.00     0.086 C 
ATOM      2  O1S UAP d 901     -36.575  74.129  24.470  0.00  0.00    -0.572 OA
ATOM      3  C6  UAP d 901     -39.188  78.120  18.995  0.00  0.00     0.233 C 
ATOM      4  O2  UAP d 901     -36.742  75.976  22.572  0.00  0.00    -0.244 OA
ATOM      5  O3  UAP d 901     -37.584  79.309  23.077  0.00  0.00    -0.389 OA
ATOM      6  O61 UAP d 901     -40.178  78.865  19.172  0.00  0.00    -0.642 OA
ATOM      7  O5  UAP d 901     -37.334  77.031  19.850  0.00  0.00    -0.311 OA
ATOM      8  O2S UAP d 901     -36.929  76.401  25.184  0.00  0.00    -0.572 OA
ATOM      9  S   UAP d 901     -36.236  75.540  24.209  0.00  0.00     0.252 S 
ATOM     10  C5  UAP d 901     -38.392  77.837  20.027  0.00  0.00     0.147 C 
ATOM     11  C2  UAP d 901     -36.594  77.321  22.127  0.00  0.00     0.135 C 
ATOM     12  O62 UAP d 901     -38.933  77.627  17.875  0.00  0.00    -0.642 OA
ATOM     13  O3S UAP d 901     -34.779  75.729  24.336  0.00  0.00    -0.572 OA
ATOM     14  C4  UAP d 901     -38.672  78.360  21.234  0.00  0.00    -0.034 C 
ATOM     15  C1  UAP d 901     -36.199  77.336  20.656  0.00  0.00     0.167 C 
ATOM     16  H   UAP d 901     -38.471  77.470  23.051  0.00  0.00     0.093 H 
ATOM     17  H   UAP d 901     -37.048  79.871  22.495  0.00  0.00     0.210 HD
ATOM     18  H   UAP d 901     -35.807  77.813  22.660  0.00  0.00     0.097 H 
ATOM     19  H   UAP d 901     -39.493  78.978  21.321  0.00  0.00     0.085 H 
ATOM     20  H   UAP d 901     -35.453  76.592  20.471  0.00  0.00     0.134 H 
ATOM     21  O1S IDS d 903     -26.076  82.432  15.043  0.00  0.00    -0.572 OA
ATOM     22  O2  IDS d 903     -28.483  82.334  16.137  0.00  0.00    -0.244 OA
ATOM     23  O5  IDS d 903     -30.920  83.497  18.496  0.00  0.00    -0.340 OA
ATOM     24  C6  IDS d 903     -32.304  82.486  20.129  0.00  0.00     0.206 C 
ATOM     25  O2S IDS d 903     -26.213  81.645  17.320  0.00  0.00    -0.572 OA
ATOM     26  C3  IDS d 903     -30.491  81.388  16.988  0.00  0.00     0.094 C 
ATOM     27  O3S IDS d 903     -26.986  80.250  15.511  0.00  0.00    -0.572 OA
ATOM     28  O3  IDS d 903     -30.135  80.143  16.427  0.00  0.00    -0.390 OA
ATOM     29  O61 IDS d 903     -32.551  81.616  20.984  0.00  0.00    -0.646 OA
ATOM     30  C1  IDS d 903     -29.647  83.550  17.833  0.00  0.00     0.161 C 
ATOM     31  C4  IDS d 903     -31.277  81.154  18.284  0.00  0.00     0.103 C 
ATOM     32  C2  IDS d 903     -29.238  82.159  17.331  0.00  0.00     0.134 C 
ATOM     33  S   IDS d 903     -26.869  81.639  16.000  0.00  0.00     0.252 S 
ATOM     34  C5  IDS d 903     -31.068  82.314  19.267  0.00  0.00     0.152 C 
ATOM     35  O62 IDS d 903     -33.021  83.498  19.956  0.00  0.00    -0.646 OA
ATOM     36  H   IDS d 903     -31.084  81.935  16.286  0.00  0.00     0.091 H 
ATOM     37  H   IDS d 903     -29.597  79.645  17.061  0.00  0.00     0.210 HD
ATOM     38  H   IDS d 903     -29.728  84.228  17.009  0.00  0.00     0.133 H 
ATOM     39  H   IDS d 903     -30.930  80.245  18.729  0.00  0.00     0.092 H 
ATOM     40  H   IDS d 903     -28.670  81.637  18.072  0.00  0.00     0.097 H 
ATOM     41  H   IDS d 903     -30.217  82.122  19.886  0.00  0.00     0.104 H 
ATOM     42  O6  SGN d 902     -33.296  76.232  18.967  0.00  0.00    -0.254 OA
ATOM     43  C1  SGN d 902     -33.087  79.902  17.284  0.00  0.00     0.150 C 
ATOM     44  C5  SGN d 902     -33.465  78.599  19.289  0.00  0.00     0.091 C 
ATOM     45  N   SGN d 902     -34.896  81.215  16.328  0.00  0.00    -0.210 NA
ATOM     46  S1  SGN d 902     -34.606  81.338  14.587  0.00  0.00     0.156 S 
ATOM     47  C4  SGN d 902     -34.978  78.646  19.065  0.00  0.00     0.095 C 
ATOM     48  O5S SGN d 902     -32.242  73.860  19.470  0.00  0.00    -0.572 OA
ATOM     49  C2  SGN d 902     -34.589  79.979  17.019  0.00  0.00     0.081 C 
ATOM     50  S2  SGN d 902     -33.535  74.571  19.510  0.00  0.00     0.251 S 
ATOM     51  O3S SGN d 902     -33.261  80.821  14.273  0.00  0.00    -0.296 OA
ATOM     52  C6  SGN d 902     -33.070  77.270  19.919  0.00  0.00     0.067 C 
ATOM     53  O3  SGN d 902     -36.730  79.982  18.105  0.00  0.00    -0.391 OA
ATOM     54  O2S SGN d 902     -35.616  80.542  13.866  0.00  0.00    -0.296 OA
ATOM     55  O6S SGN d 902     -34.059  74.577  20.889  0.00  0.00    -0.572 OA
ATOM     56  C3  SGN d 902     -35.342  79.935  18.342  0.00  0.00     0.083 C 
ATOM     57  O5  SGN d 902     -32.799  78.706  18.021  0.00  0.00    -0.349 OA
ATOM     58  O1S SGN d 902     -34.701  82.750  14.174  0.00  0.00    -0.296 OA
ATOM     59  O4S SGN d 902     -34.500  73.897  18.619  0.00  0.00    -0.572 OA
ATOM     60  O4  SGN d 902     -35.652  78.611  20.324  0.00  0.00    -0.348 OA
ATOM     61  O1  SGN d 902     -32.670  81.079  17.979  0.00  0.00    -0.348 OA
ATOM     62  H   SGN d 902     -32.541  79.858  16.365  0.00  0.00     0.131 H 
ATOM     63  H   SGN d 902     -33.186  79.405  19.935  0.00  0.00     0.090 H 
ATOM     64  H   SGN d 902     -34.344  81.948  16.773  0.00  0.00     0.140 HD
ATOM     65  H   SGN d 902     -35.273  77.802  18.476  0.00  0.00     0.091 H 
ATOM     66  H   SGN d 902     -34.886  79.150  16.411  0.00  0.00     0.076 H 
ATOM     67  H   SGN d 902     -32.594  81.344  14.746  0.00  0.00     0.231 HD
ATOM     68  H   SGN d 902     -32.034  77.293  20.189  0.00  0.00     0.080 H 
ATOM     69  H   SGN d 902     -33.652  77.094  20.799  0.00  0.00     0.080 H 
ATOM     70  H   SGN d 902     -37.204  79.953  18.951  0.00  0.00     0.210 HD
ATOM     71  H   SGN d 902     -36.502  80.880  14.071  0.00  0.00     0.231 HD
ATOM     72  H   SGN d 902     -35.072  80.777  18.944  0.00  0.00     0.089 H 
ATOM     73  H   SGN d 902     -35.587  83.088  14.381  0.00  0.00     0.231 HD
ATOM     74  O4S SGN d 904     -29.996  87.458  14.708  0.00  0.00    -0.572 OA
ATOM     75  O5S SGN d 904     -27.721  87.161  13.967  0.00  0.00    -0.572 OA
ATOM     76  C3  SGN d 904     -28.758  85.575  20.522  0.00  0.00     0.083 C 
ATOM     77  N   SGN d 904     -28.656  87.251  22.255  0.00  0.00    -0.210 NA
ATOM     78  O5  SGN d 904     -27.167  87.299  18.914  0.00  0.00    -0.350 OA
ATOM     79  O6S SGN d 904     -29.044  85.242  14.568  0.00  0.00    -0.572 OA
ATOM     80  O3S SGN d 904     -29.870  89.550  21.875  0.00  0.00    -0.296 OA
ATOM     81  O4  SGN d 904     -28.654  83.975  18.763  0.00  0.00    -0.348 OA
ATOM     82  S2  SGN d 904     -28.766  86.659  14.873  0.00  0.00     0.251 S 
ATOM     83  O1  SGN d 904     -26.194  86.833  21.009  0.00  0.00    -0.369 OA
ATOM     84  O3  SGN d 904     -30.034  85.164  20.958  0.00  0.00    -0.391 OA
ATOM     85  O2S SGN d 904     -29.586  88.828  24.163  0.00  0.00    -0.296 OA
ATOM     86  C5  SGN d 904     -27.287  85.923  18.539  0.00  0.00     0.091 C 
ATOM     87  O6  SGN d 904     -28.201  86.791  16.533  0.00  0.00    -0.254 OA
ATOM     88  O1S SGN d 904     -27.688  89.625  22.896  0.00  0.00    -0.296 OA
ATOM     89  C1  SGN d 904     -27.236  87.534  20.324  0.00  0.00     0.147 C 
ATOM     90  C4  SGN d 904     -28.632  85.376  19.019  0.00  0.00     0.095 C 
ATOM     91  C2  SGN d 904     -28.587  87.049  20.830  0.00  0.00     0.081 C 
ATOM     92  C6  SGN d 904     -27.232  85.867  17.025  0.00  0.00     0.067 C 
ATOM     93  S1  SGN d 904     -28.962  88.887  22.827  0.00  0.00     0.156 S 
ATOM     94  H   SGN d 904     -28.012  84.994  21.022  0.00  0.00     0.089 H 
ATOM     95  H   SGN d 904     -27.766  86.950  22.651  0.00  0.00     0.140 HD
ATOM     96  H   SGN d 904     -30.707  89.062  21.833  0.00  0.00     0.231 HD
ATOM     97  H   SGN d 904     -25.332  87.141  20.688  0.00  0.00     0.212 HD
ATOM     98  H   SGN d 904     -30.714  85.688  20.507  0.00  0.00     0.210 HD
ATOM     99  H   SGN d 904     -30.424  88.341  24.108  0.00  0.00     0.231 HD
ATOM    100  H   SGN d 904     -26.504  85.338  18.974  0.00  0.00     0.090 H 
ATOM    101  H   SGN d 904     -27.285  89.658  22.014  0.00  0.00     0.231 HD
ATOM    102  H   SGN d 904     -27.115  88.581  20.511  0.00  0.00     0.131 H 
ATOM    103  H   SGN d 904     -29.428  85.883  18.515  0.00  0.00     0.091 H 
ATOM    104  H   SGN d 904     -29.365  87.600  20.344  0.00  0.00     0.076 H 
ATOM    105  H   SGN d 904     -27.464  84.879  16.686  0.00  0.00     0.080 H 
ATOM    106  H   SGN d 904     -26.254  86.116  16.671  0.00  0.00     0.080 H 
ENDROOT
TORSDOF 33
ENDMDL
MODEL 20
REMARK VINA RESULT:      -7.5      4.233      7.967
REMARK  0 active torsions:
REMARK  status: ('A' for Active; 'I' for Inactive)
REMARK       I    between atoms: C3_1  and  O3_18 
REMARK       I    between atoms: O6_3  and  C6_41 
REMARK       I    between atoms: O6_3  and  S2_27 
REMARK       I    between atoms: C1_4  and  O1_67 
REMARK       I    between atoms: O2_6  and  C2_60 
REMARK       I    between atoms: O2_6  and  S_64 
REMARK       I    between atoms: C5_7  and  C6_41 
REMARK       I    between atoms: C6_9  and  C5_36 
REMARK       I    between atoms: N_10  and  C2_26 
REMARK       I    between atoms: N_10  and  S1_14 
REMARK       I    between atoms: O2_12  and  C2_39 
REMARK       I    between atoms: O2_12  and  S_34 
REMARK       I    between atoms: C3_13  and  O3_44 
REMARK       I    between atoms: S1_14  and  O1S_57 
REMARK       I    between atoms: S1_14  and  O2S_48 
REMARK       I    between atoms: S1_14  and  O3S_38 
REMARK       I    between atoms: C6_16  and  C5_68 
REMARK       I    between atoms: C4_17  and  O4_62 
REMARK       I    between atoms: N_21  and  C2_65 
REMARK       I    between atoms: N_21  and  S1_69 
REMARK       I    between atoms: C3_25  and  O3_30 
REMARK       I    between atoms: O3S_29  and  S1_69 
REMARK       I    between atoms: O4_31  and  C1_42 
REMARK       I    between atoms: O4_31  and  C4_63 
REMARK       I    between atoms: S2_35  and  O6_49 
REMARK       I    between atoms: O1_37  and  C1_61 
REMARK       I    between atoms: O2S_45  and  S1_69 
REMARK       I    between atoms: O3_46  and  C3_55 
REMARK       I    between atoms: C5_47  and  C6_66 
REMARK       I    between atoms: O6_49  and  C6_66 
REMARK       I    between atoms: O1S_52  and  S1_69 
REMARK       I    between atoms: C1_54  and  O4_62 
REMARK       I    between atoms: C4_59  and  O1_67 
ROOT
ATOM      1  C3  UAP d 901     -24.678  81.581  22.797  0.00  0.00     0.086 C 
ATOM      2  O1S UAP d 901     -21.604  84.302  20.604  0.00  0.00    -0.572 OA
ATOM      3  C6  UAP d 901     -24.839  77.982  22.130  0.00  0.00     0.233 C 
ATOM      4  O2  UAP d 901     -23.488  82.456  20.890  0.00  0.00    -0.244 OA
ATOM      5  O3  UAP d 901     -25.669  82.207  23.584  0.00  0.00    -0.389 OA
ATOM      6  O61 UAP d 901     -24.895  77.569  23.311  0.00  0.00    -0.642 OA
ATOM      7  O5  UAP d 901     -24.700  79.746  20.639  0.00  0.00    -0.311 OA
ATOM      8  O2S UAP d 901     -23.115  84.561  22.461  0.00  0.00    -0.572 OA
ATOM      9  S   UAP d 901     -23.001  84.147  21.050  0.00  0.00     0.252 S 
ATOM     10  C5  UAP d 901     -24.772  79.294  21.900  0.00  0.00     0.147 C 
ATOM     11  C2  UAP d 901     -24.777  82.051  21.345  0.00  0.00     0.135 C 
ATOM     12  O62 UAP d 901     -24.834  77.192  21.161  0.00  0.00    -0.642 OA
ATOM     13  O3S UAP d 901     -23.880  84.990  20.219  0.00  0.00    -0.572 OA
ATOM     14  C4  UAP d 901     -24.767  80.143  22.943  0.00  0.00    -0.034 C 
ATOM     15  C1  UAP d 901     -25.346  80.996  20.406  0.00  0.00     0.167 C 
ATOM     16  H   UAP d 901     -23.705  81.866  23.138  0.00  0.00     0.093 H 
ATOM     17  H   UAP d 901     -26.547  81.943  23.267  0.00  0.00     0.210 HD
ATOM     18  H   UAP d 901     -25.460  82.874  21.330  0.00  0.00     0.097 H 
ATOM     19  H   UAP d 901     -24.828  79.750  23.895  0.00  0.00     0.085 H 
ATOM     20  H   UAP d 901     -25.165  81.276  19.390  0.00  0.00     0.134 H 
ATOM     21  O1S IDS d 903     -36.118  81.015  13.780  0.00  0.00    -0.572 OA
ATOM     22  O2  IDS d 903     -34.528  80.722  15.874  0.00  0.00    -0.244 OA
ATOM     23  O5  IDS d 903     -33.656  81.399  19.285  0.00  0.00    -0.340 OA
ATOM     24  C6  IDS d 903     -31.719  82.161  20.412  0.00  0.00     0.206 C 
ATOM     25  O2S IDS d 903     -34.855  82.949  14.476  0.00  0.00    -0.572 OA
ATOM     26  C3  IDS d 903     -32.508  80.488  17.105  0.00  0.00     0.094 C 
ATOM     27  O3S IDS d 903     -33.742  81.109  13.383  0.00  0.00    -0.572 OA
ATOM     28  O3  IDS d 903     -31.804  80.284  15.899  0.00  0.00    -0.390 OA
ATOM     29  O61 IDS d 903     -30.671  82.829  20.482  0.00  0.00    -0.646 OA
ATOM     30  C1  IDS d 903     -34.518  81.483  18.140  0.00  0.00     0.161 C 
ATOM     31  C4  IDS d 903     -31.598  81.210  18.107  0.00  0.00     0.103 C 
ATOM     32  C2  IDS d 903     -33.708  81.367  16.841  0.00  0.00     0.134 C 
ATOM     33  S   IDS d 903     -34.827  81.484  14.314  0.00  0.00     0.252 S 
ATOM     34  C5  IDS d 903     -32.424  82.070  19.073  0.00  0.00     0.152 C 
ATOM     35  O62 IDS d 903     -32.219  81.569  21.396  0.00  0.00    -0.646 OA
ATOM     36  H   IDS d 903     -32.818  79.542  17.497  0.00  0.00     0.091 H 
ATOM     37  H   IDS d 903     -31.522  81.140  15.541  0.00  0.00     0.210 HD
ATOM     38  H   IDS d 903     -35.230  80.686  18.199  0.00  0.00     0.133 H 
ATOM     39  H   IDS d 903     -30.925  81.836  17.560  0.00  0.00     0.092 H 
ATOM     40  H   IDS d 903     -33.396  82.331  16.499  0.00  0.00     0.097 H 
ATOM     41  H   IDS d 903     -32.559  83.051  18.666  0.00  0.00     0.104 H 
ATOM     42  O6  SGN d 902     -26.347  81.124  17.018  0.00  0.00    -0.254 OA
ATOM     43  C1  SGN d 902     -29.872  79.519  18.177  0.00  0.00     0.150 C 
ATOM     44  C5  SGN d 902     -28.126  81.136  18.621  0.00  0.00     0.091 C 
ATOM     45  N   SGN d 902     -30.242  77.675  19.717  0.00  0.00    -0.210 NA
ATOM     46  S1  SGN d 902     -30.910  76.327  18.787  0.00  0.00     0.156 S 
ATOM     47  C4  SGN d 902     -27.435  80.164  19.579  0.00  0.00     0.095 C 
ATOM     48  O5S SGN d 902     -24.824  82.272  15.186  0.00  0.00    -0.572 OA
ATOM     49  C2  SGN d 902     -29.221  78.515  19.126  0.00  0.00     0.081 C 
ATOM     50  S2  SGN d 902     -24.729  81.589  16.491  0.00  0.00     0.251 S 
ATOM     51  O3S SGN d 902     -31.258  76.787  17.430  0.00  0.00    -0.296 OA
ATOM     52  C6  SGN d 902     -27.089  81.976  17.888  0.00  0.00     0.067 C 
ATOM     53  O3  SGN d 902     -27.854  78.344  21.092  0.00  0.00    -0.391 OA
ATOM     54  O2S SGN d 902     -29.906  75.251  18.696  0.00  0.00    -0.296 OA
ATOM     55  O6S SGN d 902     -24.133  82.499  17.488  0.00  0.00    -0.572 OA
ATOM     56  C3  SGN d 902     -28.478  79.263  20.225  0.00  0.00     0.083 C 
ATOM     57  O5  SGN d 902     -28.862  80.386  17.642  0.00  0.00    -0.349 OA
ATOM     58  O1S SGN d 902     -32.119  75.819  19.461  0.00  0.00    -0.296 OA
ATOM     59  O4S SGN d 902     -23.889  80.383  16.361  0.00  0.00    -0.572 OA
ATOM     60  O4  SGN d 902     -26.756  80.897  20.600  0.00  0.00    -0.348 OA
ATOM     61  O1  SGN d 902     -30.888  80.239  18.878  0.00  0.00    -0.348 OA
ATOM     62  H   SGN d 902     -30.339  79.017  17.355  0.00  0.00     0.131 H 
ATOM     63  H   SGN d 902     -28.777  81.772  19.183  0.00  0.00     0.090 H 
ATOM     64  H   SGN d 902     -31.024  78.284  19.959  0.00  0.00     0.140 HD
ATOM     65  H   SGN d 902     -26.730  79.572  19.033  0.00  0.00     0.091 H 
ATOM     66  H   SGN d 902     -28.531  77.905  18.580  0.00  0.00     0.076 H 
ATOM     67  H   SGN d 902     -31.919  77.495  17.487  0.00  0.00     0.231 HD
ATOM     68  H   SGN d 902     -27.579  82.737  17.317  0.00  0.00     0.080 H 
ATOM     69  H   SGN d 902     -26.432  82.443  18.593  0.00  0.00     0.080 H 
ATOM     70  H   SGN d 902     -27.383  78.827  21.790  0.00  0.00     0.210 HD
ATOM     71  H   SGN d 902     -29.676  74.946  19.587  0.00  0.00     0.231 HD
ATOM     72  H   SGN d 902     -29.165  79.854  20.794  0.00  0.00     0.089 H 
ATOM     73  H   SGN d 902     -31.889  75.516  20.353  0.00  0.00     0.231 HD
ATOM     74  O4S SGN d 904     -38.295  78.341  19.151  0.00  0.00    -0.572 OA
ATOM     75  O5S SGN d 904     -39.407  78.897  17.085  0.00  0.00    -0.572 OA
ATOM     76  C3  SGN d 904     -35.997  84.086  19.914  0.00  0.00     0.083 C 
ATOM     77  N   SGN d 904     -37.012  85.496  21.591  0.00  0.00    -0.210 NA
ATOM     78  O5  SGN d 904     -38.622  83.400  19.061  0.00  0.00    -0.350 OA
ATOM     79  O6S SGN d 904     -37.002  78.875  17.181  0.00  0.00    -0.572 OA
ATOM     80  O3S SGN d 904     -38.362  84.376  23.547  0.00  0.00    -0.296 OA
ATOM     81  O4  SGN d 904     -35.158  82.756  18.128  0.00  0.00    -0.348 OA
ATOM     82  S2  SGN d 904     -38.236  79.173  17.934  0.00  0.00     0.251 S 
ATOM     83  O1  SGN d 904     -38.243  85.726  19.096  0.00  0.00    -0.369 OA
ATOM     84  O3  SGN d 904     -34.894  83.835  20.756  0.00  0.00    -0.391 OA
ATOM     85  O2S SGN d 904     -37.368  86.532  23.998  0.00  0.00    -0.296 OA
ATOM     86  C5  SGN d 904     -37.520  83.121  18.192  0.00  0.00     0.091 C 
ATOM     87  O6  SGN d 904     -38.240  80.872  18.386  0.00  0.00    -0.254 OA
ATOM     88  O1S SGN d 904     -39.309  86.364  22.566  0.00  0.00    -0.296 OA
ATOM     89  C1  SGN d 904     -38.442  84.553  19.890  0.00  0.00     0.147 C 
ATOM     90  C4  SGN d 904     -36.260  82.881  19.024  0.00  0.00     0.095 C 
ATOM     91  C2  SGN d 904     -37.223  84.328  20.773  0.00  0.00     0.081 C 
ATOM     92  C6  SGN d 904     -37.865  81.859  17.426  0.00  0.00     0.067 C 
ATOM     93  S1  SGN d 904     -38.060  85.706  22.988  0.00  0.00     0.156 S 
ATOM     94  H   SGN d 904     -35.787  84.941  19.305  0.00  0.00     0.089 H 
ATOM     95  H   SGN d 904     -37.131  86.314  20.993  0.00  0.00     0.140 HD
ATOM     96  H   SGN d 904     -37.538  83.947  23.823  0.00  0.00     0.231 HD
ATOM     97  H   SGN d 904     -39.019  85.871  18.533  0.00  0.00     0.212 HD
ATOM     98  H   SGN d 904     -35.080  83.061  21.310  0.00  0.00     0.210 HD
ATOM     99  H   SGN d 904     -36.548  86.091  24.270  0.00  0.00     0.231 HD
ATOM    100  H   SGN d 904     -37.341  83.939  17.526  0.00  0.00     0.090 H 
ATOM    101  H   SGN d 904     -39.756  85.814  21.903  0.00  0.00     0.231 HD
ATOM    102  H   SGN d 904     -39.319  84.696  20.486  0.00  0.00     0.131 H 
ATOM    103  H   SGN d 904     -36.384  82.004  19.623  0.00  0.00     0.091 H 
ATOM    104  H   SGN d 904     -37.389  83.472  21.393  0.00  0.00     0.076 H 
ATOM    105  H   SGN d 904     -37.014  81.523  16.870  0.00  0.00     0.080 H 
ATOM    106  H   SGN d 904     -38.661  82.039  16.735  0.00  0.00     0.080 H 
ENDROOT
TORSDOF 33
ENDMDL
MODEL 21
REMARK VINA RESULT:      -7.4      4.436      9.719
REMARK  0 active torsions:
REMARK  status: ('A' for Active; 'I' for Inactive)
REMARK       I    between atoms: C3_1  and  O3_18 
REMARK       I    between atoms: O6_3  and  C6_41 
REMARK       I    between atoms: O6_3  and  S2_27 
REMARK       I    between atoms: C1_4  and  O1_67 
REMARK       I    between atoms: O2_6  and  C2_60 
REMARK       I    between atoms: O2_6  and  S_64 
REMARK       I    between atoms: C5_7  and  C6_41 
REMARK       I    between atoms: C6_9  and  C5_36 
REMARK       I    between atoms: N_10  and  C2_26 
REMARK       I    between atoms: N_10  and  S1_14 
REMARK       I    between atoms: O2_12  and  C2_39 
REMARK       I    between atoms: O2_12  and  S_34 
REMARK       I    between atoms: C3_13  and  O3_44 
REMARK       I    between atoms: S1_14  and  O1S_57 
REMARK       I    between atoms: S1_14  and  O2S_48 
REMARK       I    between atoms: S1_14  and  O3S_38 
REMARK       I    between atoms: C6_16  and  C5_68 
REMARK       I    between atoms: C4_17  and  O4_62 
REMARK       I    between atoms: N_21  and  C2_65 
REMARK       I    between atoms: N_21  and  S1_69 
REMARK       I    between atoms: C3_25  and  O3_30 
REMARK       I    between atoms: O3S_29  and  S1_69 
REMARK       I    between atoms: O4_31  and  C1_42 
REMARK       I    between atoms: O4_31  and  C4_63 
REMARK       I    between atoms: S2_35  and  O6_49 
REMARK       I    between atoms: O1_37  and  C1_61 
REMARK       I    between atoms: O2S_45  and  S1_69 
REMARK       I    between atoms: O3_46  and  C3_55 
REMARK       I    between atoms: C5_47  and  C6_66 
REMARK       I    between atoms: O6_49  and  C6_66 
REMARK       I    between atoms: O1S_52  and  S1_69 
REMARK       I    between atoms: C1_54  and  O4_62 
REMARK       I    between atoms: C4_59  and  O1_67 
ROOT
ATOM      1  C3  UAP d 901     -24.364  84.601  19.155  0.00  0.00     0.086 C 
ATOM      2  O1S UAP d 901     -23.609  88.726  17.135  0.00  0.00    -0.572 OA
ATOM      3  C6  UAP d 901     -23.884  81.471  17.311  0.00  0.00     0.233 C 
ATOM      4  O2  UAP d 901     -24.548  86.260  17.413  0.00  0.00    -0.244 OA
ATOM      5  O3  UAP d 901     -24.961  84.592  20.434  0.00  0.00    -0.389 OA
ATOM      6  O61 UAP d 901     -23.240  80.835  18.176  0.00  0.00    -0.642 OA
ATOM      7  O5  UAP d 901     -24.967  83.408  16.658  0.00  0.00    -0.311 OA
ATOM      8  O2S UAP d 901     -24.014  87.957  19.381  0.00  0.00    -0.572 OA
ATOM      9  S   UAP d 901     -24.507  87.929  17.992  0.00  0.00     0.252 S 
ATOM     10  C5  UAP d 901     -24.286  82.714  17.581  0.00  0.00     0.147 C 
ATOM     11  C2  UAP d 901     -25.286  85.282  18.142  0.00  0.00     0.135 C 
ATOM     12  O62 UAP d 901     -24.151  80.972  16.197  0.00  0.00    -0.642 OA
ATOM     13  O3S UAP d 901     -25.867  88.496  17.943  0.00  0.00    -0.572 OA
ATOM     14  C4  UAP d 901     -23.988  83.254  18.776  0.00  0.00    -0.034 C 
ATOM     15  C1  UAP d 901     -25.944  84.308  17.175  0.00  0.00     0.167 C 
ATOM     16  H   UAP d 901     -23.463  85.178  19.175  0.00  0.00     0.093 H 
ATOM     17  H   UAP d 901     -25.776  84.067  20.406  0.00  0.00     0.210 HD
ATOM     18  H   UAP d 901     -26.075  85.741  18.699  0.00  0.00     0.097 H 
ATOM     19  H   UAP d 901     -23.467  82.681  19.457  0.00  0.00     0.085 H 
ATOM     20  H   UAP d 901     -26.370  84.842  16.352  0.00  0.00     0.134 H 
ATOM     21  O1S IDS d 903     -38.154  81.342  15.734  0.00  0.00    -0.572 OA
ATOM     22  O2  IDS d 903     -35.725  81.288  16.781  0.00  0.00    -0.244 OA
ATOM     23  O5  IDS d 903     -33.495  81.534  19.578  0.00  0.00    -0.340 OA
ATOM     24  C6  IDS d 903     -31.532  82.762  20.068  0.00  0.00     0.206 C 
ATOM     25  O2S IDS d 903     -37.270  83.431  16.557  0.00  0.00    -0.572 OA
ATOM     26  C3  IDS d 903     -33.381  81.642  16.956  0.00  0.00     0.094 C 
ATOM     27  O3S IDS d 903     -36.405  82.472  14.520  0.00  0.00    -0.572 OA
ATOM     28  O3  IDS d 903     -33.339  81.997  15.591  0.00  0.00    -0.390 OA
ATOM     29  O61 IDS d 903     -30.803  83.767  19.973  0.00  0.00    -0.646 OA
ATOM     30  C1  IDS d 903     -34.797  81.498  18.974  0.00  0.00     0.161 C 
ATOM     31  C4  IDS d 903     -32.321  82.445  17.721  0.00  0.00     0.103 C 
ATOM     32  C2  IDS d 903     -34.736  81.994  17.522  0.00  0.00     0.134 C 
ATOM     33  S   IDS d 903     -36.943  82.172  15.864  0.00  0.00     0.252 S 
ATOM     34  C5  IDS d 903     -32.754  82.675  19.175  0.00  0.00     0.152 C 
ATOM     35  O62 IDS d 903     -31.306  81.827  20.870  0.00  0.00    -0.646 OA
ATOM     36  H   IDS d 903     -33.197  80.593  17.053  0.00  0.00     0.091 H 
ATOM     37  H   IDS d 903     -33.506  82.948  15.499  0.00  0.00     0.210 HD
ATOM     38  H   IDS d 903     -35.150  80.487  19.001  0.00  0.00     0.133 H 
ATOM     39  H   IDS d 903     -32.196  83.389  17.233  0.00  0.00     0.092 H 
ATOM     40  H   IDS d 903     -34.899  83.050  17.473  0.00  0.00     0.097 H 
ATOM     41  H   IDS d 903     -33.323  83.578  19.249  0.00  0.00     0.104 H 
ATOM     42  O6  SGN d 902     -28.482  84.723  14.748  0.00  0.00    -0.254 OA
ATOM     43  C1  SGN d 902     -30.412  81.624  16.485  0.00  0.00     0.150 C 
ATOM     44  C5  SGN d 902     -29.168  83.679  16.790  0.00  0.00     0.091 C 
ATOM     45  N   SGN d 902     -29.476  79.512  17.239  0.00  0.00    -0.210 NA
ATOM     46  S1  SGN d 902     -30.136  78.235  16.208  0.00  0.00     0.156 S 
ATOM     47  C4  SGN d 902     -27.867  82.894  16.971  0.00  0.00     0.095 C 
ATOM     48  O5S SGN d 902     -28.423  86.743  13.044  0.00  0.00    -0.572 OA
ATOM     49  C2  SGN d 902     -29.141  80.797  16.661  0.00  0.00     0.081 C 
ATOM     50  S2  SGN d 902     -27.521  85.902  13.854  0.00  0.00     0.251 S 
ATOM     51  O3S SGN d 902     -31.215  78.787  15.368  0.00  0.00    -0.296 OA
ATOM     52  C6  SGN d 902     -28.890  85.000  16.086  0.00  0.00     0.067 C 
ATOM     53  O3  SGN d 902     -26.992  80.788  17.731  0.00  0.00    -0.391 OA
ATOM     54  O2S SGN d 902     -29.067  77.703  15.344  0.00  0.00    -0.296 OA
ATOM     55  O6S SGN d 902     -26.773  86.746  14.805  0.00  0.00    -0.572 OA
ATOM     56  C3  SGN d 902     -28.178  81.534  17.582  0.00  0.00     0.083 C 
ATOM     57  O5  SGN d 902     -30.066  82.916  15.968  0.00  0.00    -0.349 OA
ATOM     58  O1S SGN d 902     -30.673  77.152  17.053  0.00  0.00    -0.296 OA
ATOM     59  O4S SGN d 902     -26.573  85.196  12.970  0.00  0.00    -0.572 OA
ATOM     60  O4  SGN d 902     -26.992  83.608  17.845  0.00  0.00    -0.348 OA
ATOM     61  O1  SGN d 902     -31.098  81.708  17.736  0.00  0.00    -0.348 OA
ATOM     62  H   SGN d 902     -31.073  81.160  15.784  0.00  0.00     0.131 H 
ATOM     63  H   SGN d 902     -29.597  83.863  17.753  0.00  0.00     0.090 H 
ATOM     64  H   SGN d 902     -30.164  79.687  17.972  0.00  0.00     0.140 HD
ATOM     65  H   SGN d 902     -27.398  82.766  16.018  0.00  0.00     0.091 H 
ATOM     66  H   SGN d 902     -28.679  80.647  15.707  0.00  0.00     0.076 H 
ATOM     67  H   SGN d 902     -31.920  79.137  15.935  0.00  0.00     0.231 HD
ATOM     68  H   SGN d 902     -29.778  85.598  16.076  0.00  0.00     0.080 H 
ATOM     69  H   SGN d 902     -28.119  85.534  16.602  0.00  0.00     0.080 H 
ATOM     70  H   SGN d 902     -26.383  81.263  18.318  0.00  0.00     0.210 HD
ATOM     71  H   SGN d 902     -28.356  77.339  15.894  0.00  0.00     0.231 HD
ATOM     72  H   SGN d 902     -28.621  81.664  18.547  0.00  0.00     0.089 H 
ATOM     73  H   SGN d 902     -29.962  76.790  17.605  0.00  0.00     0.231 HD
ATOM     74  O4S SGN d 904     -36.608  76.960  20.110  0.00  0.00    -0.572 OA
ATOM     75  O5S SGN d 904     -38.695  77.435  19.001  0.00  0.00    -0.572 OA
ATOM     76  C3  SGN d 904     -35.829  82.846  22.012  0.00  0.00     0.083 C 
ATOM     77  N   SGN d 904     -36.212  83.340  24.344  0.00  0.00    -0.210 NA
ATOM     78  O5  SGN d 904     -38.248  81.350  22.047  0.00  0.00    -0.350 OA
ATOM     79  O6S SGN d 904     -36.648  78.370  18.148  0.00  0.00    -0.572 OA
ATOM     80  O3S SGN d 904     -36.073  81.388  26.097  0.00  0.00    -0.296 OA
ATOM     81  O4  SGN d 904     -35.667  82.374  19.686  0.00  0.00    -0.348 OA
ATOM     82  S2  SGN d 904     -37.378  77.978  19.370  0.00  0.00     0.251 S 
ATOM     83  O1  SGN d 904     -38.525  83.566  22.797  0.00  0.00    -0.369 OA
ATOM     84  O3  SGN d 904     -34.434  82.894  22.205  0.00  0.00    -0.391 OA
ATOM     85  O2S SGN d 904     -35.591  83.616  26.900  0.00  0.00    -0.296 OA
ATOM     86  C5  SGN d 904     -37.690  81.729  20.784  0.00  0.00     0.091 C 
ATOM     87  O6  SGN d 904     -37.603  79.395  20.386  0.00  0.00    -0.254 OA
ATOM     88  O1S SGN d 904     -37.863  82.978  26.376  0.00  0.00    -0.296 OA
ATOM     89  C1  SGN d 904     -37.991  82.276  23.107  0.00  0.00     0.147 C 
ATOM     90  C4  SGN d 904     -36.171  81.853  20.912  0.00  0.00     0.095 C 
ATOM     91  C2  SGN d 904     -36.485  82.385  23.300  0.00  0.00     0.081 C 
ATOM     92  C6  SGN d 904     -38.023  80.625  19.800  0.00  0.00     0.067 C 
ATOM     93  S1  SGN d 904     -36.446  82.811  26.006  0.00  0.00     0.156 S 
ATOM     94  H   SGN d 904     -36.179  83.819  21.736  0.00  0.00     0.089 H 
ATOM     95  H   SGN d 904     -36.820  84.145  24.190  0.00  0.00     0.140 HD
ATOM     96  H   SGN d 904     -35.140  81.282  25.854  0.00  0.00     0.231 HD
ATOM     97  H   SGN d 904     -39.484  83.498  22.675  0.00  0.00     0.212 HD
ATOM     98  H   SGN d 904     -34.112  82.014  22.455  0.00  0.00     0.210 HD
ATOM     99  H   SGN d 904     -34.660  83.500  26.649  0.00  0.00     0.231 HD
ATOM    100  H   SGN d 904     -38.085  82.668  20.458  0.00  0.00     0.090 H 
ATOM    101  H   SGN d 904     -38.417  82.446  25.783  0.00  0.00     0.231 HD
ATOM    102  H   SGN d 904     -38.462  81.924  24.001  0.00  0.00     0.131 H 
ATOM    103  H   SGN d 904     -35.748  80.896  21.139  0.00  0.00     0.091 H 
ATOM    104  H   SGN d 904     -36.093  81.427  23.568  0.00  0.00     0.076 H 
ATOM    105  H   SGN d 904     -37.505  80.787  18.878  0.00  0.00     0.080 H 
ATOM    106  H   SGN d 904     -39.072  80.608  19.590  0.00  0.00     0.080 H 
ENDROOT
TORSDOF 33
ENDMDL
MODEL 22
REMARK VINA RESULT:      -7.4      5.308      7.924
REMARK  0 active torsions:
REMARK  status: ('A' for Active; 'I' for Inactive)
REMARK       I    between atoms: C3_1  and  O3_18 
REMARK       I    between atoms: O6_3  and  C6_41 
REMARK       I    between atoms: O6_3  and  S2_27 
REMARK       I    between atoms: C1_4  and  O1_67 
REMARK       I    between atoms: O2_6  and  C2_60 
REMARK       I    between atoms: O2_6  and  S_64 
REMARK       I    between atoms: C5_7  and  C6_41 
REMARK       I    between atoms: C6_9  and  C5_36 
REMARK       I    between atoms: N_10  and  C2_26 
REMARK       I    between atoms: N_10  and  S1_14 
REMARK       I    between atoms: O2_12  and  C2_39 
REMARK       I    between atoms: O2_12  and  S_34 
REMARK       I    between atoms: C3_13  and  O3_44 
REMARK       I    between atoms: S1_14  and  O1S_57 
REMARK       I    between atoms: S1_14  and  O2S_48 
REMARK       I    between atoms: S1_14  and  O3S_38 
REMARK       I    between atoms: C6_16  and  C5_68 
REMARK       I    between atoms: C4_17  and  O4_62 
REMARK       I    between atoms: N_21  and  C2_65 
REMARK       I    between atoms: N_21  and  S1_69 
REMARK       I    between atoms: C3_25  and  O3_30 
REMARK       I    between atoms: O3S_29  and  S1_69 
REMARK       I    between atoms: O4_31  and  C1_42 
REMARK       I    between atoms: O4_31  and  C4_63 
REMARK       I    between atoms: S2_35  and  O6_49 
REMARK       I    between atoms: O1_37  and  C1_61 
REMARK       I    between atoms: O2S_45  and  S1_69 
REMARK       I    between atoms: O3_46  and  C3_55 
REMARK       I    between atoms: C5_47  and  C6_66 
REMARK       I    between atoms: O6_49  and  C6_66 
REMARK       I    between atoms: O1S_52  and  S1_69 
REMARK       I    between atoms: C1_54  and  O4_62 
REMARK       I    between atoms: C4_59  and  O1_67 
ROOT
ATOM      1  C3  UAP d 901     -33.859  76.422  17.993  0.00  0.00     0.086 C 
ATOM      2  O1S UAP d 901     -37.553  77.824  20.453  0.00  0.00    -0.572 OA
ATOM      3  C6  UAP d 901     -31.607  73.828  19.267  0.00  0.00     0.233 C 
ATOM      4  O2  UAP d 901     -35.027  77.173  19.965  0.00  0.00    -0.244 OA
ATOM      5  O3  UAP d 901     -33.524  77.151  16.832  0.00  0.00    -0.389 OA
ATOM      6  O61 UAP d 901     -31.509  73.131  18.231  0.00  0.00    -0.642 OA
ATOM      7  O5  UAP d 901     -32.482  75.674  20.352  0.00  0.00    -0.311 OA
ATOM      8  O2S UAP d 901     -36.751  78.160  18.207  0.00  0.00    -0.572 OA
ATOM      9  S   UAP d 901     -36.398  78.240  19.636  0.00  0.00     0.252 S 
ATOM     10  C5  UAP d 901     -32.362  74.926  19.245  0.00  0.00     0.147 C 
ATOM     11  C2  UAP d 901     -33.821  77.331  19.222  0.00  0.00     0.135 C 
ATOM     12  O62 UAP d 901     -31.020  73.512  20.324  0.00  0.00    -0.642 OA
ATOM     13  O3S UAP d 901     -36.029  79.627  19.973  0.00  0.00    -0.572 OA
ATOM     14  C4  UAP d 901     -33.002  75.260  18.110  0.00  0.00    -0.034 C 
ATOM     15  C1  UAP d 901     -32.623  77.074  20.126  0.00  0.00     0.167 C 
ATOM     16  H   UAP d 901     -34.863  76.058  17.920  0.00  0.00     0.093 H 
ATOM     17  H   UAP d 901     -32.613  77.477  16.906  0.00  0.00     0.210 HD
ATOM     18  H   UAP d 901     -33.725  78.334  18.864  0.00  0.00     0.097 H 
ATOM     19  H   UAP d 901     -32.877  74.658  17.281  0.00  0.00     0.085 H 
ATOM     20  H   UAP d 901     -32.772  77.548  21.073  0.00  0.00     0.134 H 
ATOM     21  O1S IDS d 903     -22.861  84.598  22.961  0.00  0.00    -0.572 OA
ATOM     22  O2  IDS d 903     -24.308  82.883  21.559  0.00  0.00    -0.244 OA
ATOM     23  O5  IDS d 903     -25.918  81.865  18.522  0.00  0.00    -0.340 OA
ATOM     24  C6  IDS d 903     -28.093  81.149  17.923  0.00  0.00     0.206 C 
ATOM     25  O2S IDS d 903     -25.080  85.301  22.325  0.00  0.00    -0.572 OA
ATOM     26  C3  IDS d 903     -26.008  81.291  21.084  0.00  0.00     0.094 C 
ATOM     27  O3S IDS d 903     -24.786  83.636  24.045  0.00  0.00    -0.572 OA
ATOM     28  O3  IDS d 903     -26.283  81.181  22.464  0.00  0.00    -0.390 OA
ATOM     29  O61 IDS d 903     -29.331  81.147  18.051  0.00  0.00    -0.646 OA
ATOM     30  C1  IDS d 903     -25.089  82.737  19.305  0.00  0.00     0.161 C 
ATOM     31  C4  IDS d 903     -27.307  81.091  20.292  0.00  0.00     0.103 C 
ATOM     32  C2  IDS d 903     -25.486  82.677  20.787  0.00  0.00     0.134 C 
ATOM     33  S   IDS d 903     -24.256  84.162  22.770  0.00  0.00     0.252 S 
ATOM     34  C5  IDS d 903     -27.265  81.869  18.969  0.00  0.00     0.152 C 
ATOM     35  O62 IDS d 903     -27.504  80.592  16.969  0.00  0.00    -0.646 OA
ATOM     36  H   IDS d 903     -25.285  80.553  20.808  0.00  0.00     0.091 H 
ATOM     37  H   IDS d 903     -26.938  81.849  22.717  0.00  0.00     0.210 HD
ATOM     38  H   IDS d 903     -24.071  82.428  19.186  0.00  0.00     0.133 H 
ATOM     39  H   IDS d 903     -28.123  81.444  20.886  0.00  0.00     0.092 H 
ATOM     40  H   IDS d 903     -26.228  83.413  21.014  0.00  0.00     0.097 H 
ATOM     41  H   IDS d 903     -27.643  82.859  19.114  0.00  0.00     0.104 H 
ATOM     42  O6  SGN d 902     -31.364  78.797  22.945  0.00  0.00    -0.254 OA
ATOM     43  C1  SGN d 902     -27.772  78.857  21.090  0.00  0.00     0.150 C 
ATOM     44  C5  SGN d 902     -30.168  79.150  20.901  0.00  0.00     0.091 C 
ATOM     45  N   SGN d 902     -26.671  77.044  19.902  0.00  0.00    -0.210 NA
ATOM     46  S1  SGN d 902     -25.229  76.598  20.825  0.00  0.00     0.156 S 
ATOM     47  C4  SGN d 902     -30.331  77.709  20.412  0.00  0.00     0.095 C 
ATOM     48  O5S SGN d 902     -32.968  79.578  24.896  0.00  0.00    -0.572 OA
ATOM     49  C2  SGN d 902     -27.883  77.414  20.604  0.00  0.00     0.081 C 
ATOM     50  S2  SGN d 902     -32.861  78.548  23.845  0.00  0.00     0.251 S 
ATOM     51  O3S SGN d 902     -24.998  77.591  21.891  0.00  0.00    -0.296 OA
ATOM     52  C6  SGN d 902     -31.372  79.558  21.739  0.00  0.00     0.067 C 
ATOM     53  O3  SGN d 902     -29.199  75.949  19.229  0.00  0.00    -0.391 OA
ATOM     54  O2S SGN d 902     -25.428  75.268  21.430  0.00  0.00    -0.296 OA
ATOM     55  O6S SGN d 902     -34.009  78.655  22.923  0.00  0.00    -0.572 OA
ATOM     56  C3  SGN d 902     -29.075  77.284  19.665  0.00  0.00     0.083 C 
ATOM     57  O5  SGN d 902     -28.998  79.234  21.731  0.00  0.00    -0.349 OA
ATOM     58  O1S SGN d 902     -24.063  76.561  19.923  0.00  0.00    -0.296 OA
ATOM     59  O4S SGN d 902     -32.847  77.208  24.461  0.00  0.00    -0.572 OA
ATOM     60  O4  SGN d 902     -31.450  77.625  19.529  0.00  0.00    -0.348 OA
ATOM     61  O1  SGN d 902     -27.457  79.704  19.983  0.00  0.00    -0.348 OA
ATOM     62  H   SGN d 902     -26.986  78.956  21.808  0.00  0.00     0.131 H 
ATOM     63  H   SGN d 902     -30.080  79.795  20.052  0.00  0.00     0.090 H 
ATOM     64  H   SGN d 902     -26.414  77.839  19.317  0.00  0.00     0.140 HD
ATOM     65  H   SGN d 902     -30.489  77.068  21.254  0.00  0.00     0.091 H 
ATOM     66  H   SGN d 902     -28.019  76.765  21.444  0.00  0.00     0.076 H 
ATOM     67  H   SGN d 902     -24.866  78.467  21.495  0.00  0.00     0.231 HD
ATOM     68  H   SGN d 902     -31.313  80.602  21.971  0.00  0.00     0.080 H 
ATOM     69  H   SGN d 902     -32.275  79.376  21.196  0.00  0.00     0.080 H 
ATOM     70  H   SGN d 902     -29.959  75.873  18.632  0.00  0.00     0.210 HD
ATOM     71  H   SGN d 902     -25.580  74.614  20.731  0.00  0.00     0.231 HD
ATOM     72  H   SGN d 902     -28.935  77.908  18.808  0.00  0.00     0.089 H 
ATOM     73  H   SGN d 902     -24.217  75.907  19.223  0.00  0.00     0.231 HD
ATOM     74  O4S SGN d 904     -20.407  81.735  17.810  0.00  0.00    -0.572 OA
ATOM     75  O5S SGN d 904     -19.500  83.417  19.281  0.00  0.00    -0.572 OA
ATOM     76  C3  SGN d 904     -25.618  84.971  16.688  0.00  0.00     0.083 C 
ATOM     77  N   SGN d 904     -25.838  86.047  14.539  0.00  0.00    -0.210 NA
ATOM     78  O5  SGN d 904     -22.967  85.996  16.805  0.00  0.00    -0.350 OA
ATOM     79  O6S SGN d 904     -21.459  82.182  19.939  0.00  0.00    -0.572 OA
ATOM     80  O3S SGN d 904     -24.410  85.161  12.520  0.00  0.00    -0.296 OA
ATOM     81  O4  SGN d 904     -25.281  84.081  18.870  0.00  0.00    -0.348 OA
ATOM     82  S2  SGN d 904     -20.737  82.780  18.799  0.00  0.00     0.251 S 
ATOM     83  O1  SGN d 904     -24.586  87.667  16.436  0.00  0.00    -0.369 OA
ATOM     84  O3  SGN d 904     -26.502  83.946  16.295  0.00  0.00    -0.391 OA
ATOM     85  O2S SGN d 904     -26.497  86.256  11.986  0.00  0.00    -0.296 OA
ATOM     86  C5  SGN d 904     -23.574  85.516  18.009  0.00  0.00     0.091 C 
ATOM     87  O6  SGN d 904     -21.756  83.999  18.045  0.00  0.00    -0.254 OA
ATOM     88  O1S SGN d 904     -24.606  87.552  12.751  0.00  0.00    -0.296 OA
ATOM     89  C1  SGN d 904     -23.886  86.558  15.864  0.00  0.00     0.147 C 
ATOM     90  C4  SGN d 904     -24.592  84.427  17.671  0.00  0.00     0.095 C 
ATOM     91  C2  SGN d 904     -24.886  85.483  15.463  0.00  0.00     0.081 C 
ATOM     92  C6  SGN d 904     -22.469  84.926  18.862  0.00  0.00     0.067 C 
ATOM     93  S1  SGN d 904     -25.317  86.268  12.873  0.00  0.00     0.156 S 
ATOM     94  H   SGN d 904     -26.175  85.757  17.153  0.00  0.00     0.089 H 
ATOM     95  H   SGN d 904     -26.110  86.962  14.899  0.00  0.00     0.140 HD
ATOM     96  H   SGN d 904     -24.882  84.318  12.601  0.00  0.00     0.231 HD
ATOM     97  H   SGN d 904     -23.950  88.353  16.692  0.00  0.00     0.212 HD
ATOM     98  H   SGN d 904     -26.001  83.231  15.873  0.00  0.00     0.210 HD
ATOM     99  H   SGN d 904     -26.959  85.407  12.073  0.00  0.00     0.231 HD
ATOM    100  H   SGN d 904     -24.077  86.308  18.524  0.00  0.00     0.090 H 
ATOM    101  H   SGN d 904     -23.832  87.551  13.337  0.00  0.00     0.231 HD
ATOM    102  H   SGN d 904     -23.344  86.908  15.010  0.00  0.00     0.131 H 
ATOM    103  H   SGN d 904     -24.090  83.583  17.246  0.00  0.00     0.091 H 
ATOM    104  H   SGN d 904     -24.366  84.671  15.001  0.00  0.00     0.076 H 
ATOM    105  H   SGN d 904     -22.888  84.422  19.708  0.00  0.00     0.080 H 
ATOM    106  H   SGN d 904     -21.817  85.693  19.224  0.00  0.00     0.080 H 
ENDROOT
TORSDOF 33
ENDMDL
MODEL 23
REMARK VINA RESULT:      -7.4      4.798      9.450
REMARK  0 active torsions:
REMARK  status: ('A' for Active; 'I' for Inactive)
REMARK       I    between atoms: C3_1  and  O3_18 
REMARK       I    between atoms: O6_3  and  C6_41 
REMARK       I    between atoms: O6_3  and  S2_27 
REMARK       I    between atoms: C1_4  and  O1_67 
REMARK       I    between atoms: O2_6  and  C2_60 
REMARK       I    between atoms: O2_6  and  S_64 
REMARK       I    between atoms: C5_7  and  C6_41 
REMARK       I    between atoms: C6_9  and  C5_36 
REMARK       I    between atoms: N_10  and  C2_26 
REMARK       I    between atoms: N_10  and  S1_14 
REMARK       I    between atoms: O2_12  and  C2_39 
REMARK       I    between atoms: O2_12  and  S_34 
REMARK       I    between atoms: C3_13  and  O3_44 
REMARK       I    between atoms: S1_14  and  O1S_57 
REMARK       I    between atoms: S1_14  and  O2S_48 
REMARK       I    between atoms: S1_14  and  O3S_38 
REMARK       I    between atoms: C6_16  and  C5_68 
REMARK       I    between atoms: C4_17  and  O4_62 
REMARK       I    between atoms: N_21  and  C2_65 
REMARK       I    between atoms: N_21  and  S1_69 
REMARK       I    between atoms: C3_25  and  O3_30 
REMARK       I    between atoms: O3S_29  and  S1_69 
REMARK       I    between atoms: O4_31  and  C1_42 
REMARK       I    between atoms: O4_31  and  C4_63 
REMARK       I    between atoms: S2_35  and  O6_49 
REMARK       I    between atoms: O1_37  and  C1_61 
REMARK       I    between atoms: O2S_45  and  S1_69 
REMARK       I    between atoms: O3_46  and  C3_55 
REMARK       I    between atoms: C5_47  and  C6_66 
REMARK       I    between atoms: O6_49  and  C6_66 
REMARK       I    between atoms: O1S_52  and  S1_69 
REMARK       I    between atoms: C1_54  and  O4_62 
REMARK       I    between atoms: C4_59  and  O1_67 
ROOT
ATOM      1  C3  UAP d 901     -34.362  79.163  20.462  0.00  0.00     0.086 C 
ATOM      2  O1S UAP d 901     -35.242  75.368  17.916  0.00  0.00    -0.572 OA
ATOM      3  C6  UAP d 901     -35.960  82.371  19.699  0.00  0.00     0.233 C 
ATOM      4  O2  UAP d 901     -34.632  77.899  18.426  0.00  0.00    -0.244 OA
ATOM      5  O3  UAP d 901     -33.325  79.091  21.417  0.00  0.00    -0.389 OA
ATOM      6  O61 UAP d 901     -36.303  82.696  20.858  0.00  0.00    -0.642 OA
ATOM      7  O5  UAP d 901     -34.950  80.857  18.270  0.00  0.00    -0.311 OA
ATOM      8  O2S UAP d 901     -34.114  75.823  19.994  0.00  0.00    -0.572 OA
ATOM      9  S   UAP d 901     -34.207  76.190  18.569  0.00  0.00     0.252 S 
ATOM     10  C5  UAP d 901     -35.312  81.221  19.509  0.00  0.00     0.147 C 
ATOM     11  C2  UAP d 901     -33.817  78.880  19.062  0.00  0.00     0.135 C 
ATOM     12  O62 UAP d 901     -36.219  83.095  18.714  0.00  0.00    -0.642 OA
ATOM     13  O3S UAP d 901     -32.906  75.954  17.916  0.00  0.00    -0.572 OA
ATOM     14  C4  UAP d 901     -35.043  80.437  20.569  0.00  0.00    -0.034 C 
ATOM     15  C1  UAP d 901     -33.731  80.123  18.186  0.00  0.00     0.167 C 
ATOM     16  H   UAP d 901     -35.093  78.406  20.658  0.00  0.00     0.093 H 
ATOM     17  H   UAP d 901     -32.668  79.780  21.232  0.00  0.00     0.210 HD
ATOM     18  H   UAP d 901     -32.817  78.522  19.183  0.00  0.00     0.097 H 
ATOM     19  H   UAP d 901     -35.337  80.759  21.504  0.00  0.00     0.085 H 
ATOM     20  H   UAP d 901     -33.585  79.840  17.164  0.00  0.00     0.134 H 
ATOM     21  O1S IDS d 903     -23.590  85.914  13.329  0.00  0.00    -0.572 OA
ATOM     22  O2  IDS d 903     -25.405  85.254  15.138  0.00  0.00    -0.244 OA
ATOM     23  O5  IDS d 903     -26.319  84.061  18.393  0.00  0.00    -0.340 OA
ATOM     24  C6  IDS d 903     -27.742  82.365  19.230  0.00  0.00     0.206 C 
ATOM     25  O2S IDS d 903     -23.779  83.574  13.889  0.00  0.00    -0.572 OA
ATOM     26  C3  IDS d 903     -27.422  84.366  16.028  0.00  0.00     0.094 C 
ATOM     27  O3S IDS d 903     -25.492  84.643  12.570  0.00  0.00    -0.572 OA
ATOM     28  O3  IDS d 903     -27.938  84.243  14.721  0.00  0.00    -0.390 OA
ATOM     29  O61 IDS d 903     -28.299  81.254  19.159  0.00  0.00    -0.646 OA
ATOM     30  C1  IDS d 903     -25.372  84.484  17.400  0.00  0.00     0.161 C 
ATOM     31  C4  IDS d 903     -27.977  83.233  16.901  0.00  0.00     0.103 C 
ATOM     32  C2  IDS d 903     -25.918  84.234  15.987  0.00  0.00     0.134 C 
ATOM     33  S   IDS d 903     -24.525  84.827  13.672  0.00  0.00     0.252 S 
ATOM     34  C5  IDS d 903     -26.987  82.867  18.015  0.00  0.00     0.152 C 
ATOM     35  O62 IDS d 903     -27.771  83.080  20.257  0.00  0.00    -0.646 OA
ATOM     36  H   IDS d 903     -27.702  85.318  16.429  0.00  0.00     0.091 H 
ATOM     37  H   IDS d 903     -27.686  83.381  14.354  0.00  0.00     0.210 HD
ATOM     38  H   IDS d 903     -25.184  85.528  17.540  0.00  0.00     0.133 H 
ATOM     39  H   IDS d 903     -28.145  82.379  16.279  0.00  0.00     0.092 H 
ATOM     40  H   IDS d 903     -25.638  83.264  15.635  0.00  0.00     0.097 H 
ATOM     41  H   IDS d 903     -26.310  82.113  17.670  0.00  0.00     0.104 H 
ATOM     42  O6  SGN d 902     -32.300  80.689  15.002  0.00  0.00    -0.254 OA
ATOM     43  C1  SGN d 902     -30.312  83.805  16.639  0.00  0.00     0.150 C 
ATOM     44  C5  SGN d 902     -31.033  81.505  16.863  0.00  0.00     0.091 C 
ATOM     45  N   SGN d 902     -31.174  85.503  18.150  0.00  0.00    -0.210 NA
ATOM     46  S1  SGN d 902     -31.154  87.047  17.288  0.00  0.00     0.156 S 
ATOM     47  C4  SGN d 902     -32.260  81.941  17.666  0.00  0.00     0.095 C 
ATOM     48  O5S SGN d 902     -32.724  79.017  12.998  0.00  0.00    -0.572 OA
ATOM     49  C2  SGN d 902     -31.519  84.290  17.438  0.00  0.00     0.081 C 
ATOM     50  S2  SGN d 902     -33.353  79.491  14.247  0.00  0.00     0.251 S 
ATOM     51  O3S SGN d 902     -30.418  86.895  16.019  0.00  0.00    -0.296 OA
ATOM     52  C6  SGN d 902     -31.370  80.291  16.008  0.00  0.00     0.067 C 
ATOM     53  O3  SGN d 902     -33.064  83.645  19.159  0.00  0.00    -0.391 OA
ATOM     54  O2S SGN d 902     -32.539  87.465  17.002  0.00  0.00    -0.296 OA
ATOM     55  O6S SGN d 902     -33.545  78.357  15.170  0.00  0.00    -0.572 OA
ATOM     56  C3  SGN d 902     -31.935  83.215  18.434  0.00  0.00     0.083 C 
ATOM     57  O5  SGN d 902     -30.643  82.573  15.985  0.00  0.00    -0.349 OA
ATOM     58  O1S SGN d 902     -30.492  88.066  18.124  0.00  0.00    -0.296 OA
ATOM     59  O4S SGN d 902     -34.659  80.107  13.943  0.00  0.00    -0.572 OA
ATOM     60  O4  SGN d 902     -32.617  80.916  18.594  0.00  0.00    -0.348 OA
ATOM     61  O1  SGN d 902     -29.191  83.669  17.516  0.00  0.00    -0.348 OA
ATOM     62  H   SGN d 902     -30.047  84.514  15.883  0.00  0.00     0.131 H 
ATOM     63  H   SGN d 902     -30.243  81.263  17.543  0.00  0.00     0.090 H 
ATOM     64  H   SGN d 902     -30.238  85.365  18.533  0.00  0.00     0.140 HD
ATOM     65  H   SGN d 902     -33.075  82.118  16.995  0.00  0.00     0.091 H 
ATOM     66  H   SGN d 902     -32.331  84.490  16.770  0.00  0.00     0.076 H 
ATOM     67  H   SGN d 902     -29.506  86.620  16.205  0.00  0.00     0.231 HD
ATOM     68  H   SGN d 902     -30.480  79.914  15.549  0.00  0.00     0.080 H 
ATOM     69  H   SGN d 902     -31.797  79.521  16.618  0.00  0.00     0.080 H 
ATOM     70  H   SGN d 902     -33.324  82.956  19.791  0.00  0.00     0.210 HD
ATOM     71  H   SGN d 902     -33.025  87.566  17.835  0.00  0.00     0.231 HD
ATOM     72  H   SGN d 902     -31.139  83.029  19.124  0.00  0.00     0.089 H 
ATOM     73  H   SGN d 902     -30.978  88.165  18.958  0.00  0.00     0.231 HD
ATOM     74  O4S SGN d 904     -23.931  89.056  18.874  0.00  0.00    -0.572 OA
ATOM     75  O5S SGN d 904     -22.391  89.245  17.029  0.00  0.00    -0.572 OA
ATOM     76  C3  SGN d 904     -23.063  82.912  19.477  0.00  0.00     0.083 C 
ATOM     77  N   SGN d 904     -21.741  82.135  21.341  0.00  0.00    -0.210 NA
ATOM     78  O5  SGN d 904     -21.060  84.879  19.020  0.00  0.00    -0.350 OA
ATOM     79  O6S SGN d 904     -24.453  88.036  16.747  0.00  0.00    -0.572 OA
ATOM     80  O3S SGN d 904     -21.468  83.688  23.442  0.00  0.00    -0.296 OA
ATOM     81  O4  SGN d 904     -24.178  83.716  17.534  0.00  0.00    -0.348 OA
ATOM     82  S2  SGN d 904     -23.371  88.371  17.694  0.00  0.00     0.251 S 
ATOM     83  O1  SGN d 904     -20.201  82.686  19.079  0.00  0.00    -0.369 OA
ATOM     84  O3  SGN d 904     -24.253  82.525  20.126  0.00  0.00    -0.391 OA
ATOM     85  O2S SGN d 904     -21.278  81.307  23.810  0.00  0.00    -0.296 OA
ATOM     86  C5  SGN d 904     -22.003  84.601  17.979  0.00  0.00     0.091 C 
ATOM     87  O6  SGN d 904     -22.569  86.890  18.202  0.00  0.00    -0.254 OA
ATOM     88  O1S SGN d 904     -19.503  82.510  22.694  0.00  0.00    -0.296 OA
ATOM     89  C1  SGN d 904     -20.751  83.756  19.852  0.00  0.00     0.147 C 
ATOM     90  C4  SGN d 904     -23.319  84.124  18.595  0.00  0.00     0.095 C 
ATOM     91  C2  SGN d 904     -22.033  83.286  20.525  0.00  0.00     0.081 C 
ATOM     92  C6  SGN d 904     -22.238  85.899  17.232  0.00  0.00     0.067 C 
ATOM     93  S1  SGN d 904     -20.960  82.419  22.892  0.00  0.00     0.156 S 
ATOM     94  H   SGN d 904     -22.712  82.100  18.874  0.00  0.00     0.089 H 
ATOM     95  H   SGN d 904     -21.132  81.521  20.799  0.00  0.00     0.140 HD
ATOM     96  H   SGN d 904     -22.427  83.624  23.571  0.00  0.00     0.231 HD
ATOM     97  H   SGN d 904     -19.384  82.983  18.650  0.00  0.00     0.212 HD
ATOM     98  H   SGN d 904     -24.575  83.257  20.674  0.00  0.00     0.210 HD
ATOM     99  H   SGN d 904     -22.239  81.255  23.934  0.00  0.00     0.231 HD
ATOM    100  H   SGN d 904     -21.635  83.840  17.324  0.00  0.00     0.090 H 
ATOM    101  H   SGN d 904     -19.303  83.242  22.090  0.00  0.00     0.231 HD
ATOM    102  H   SGN d 904     -20.026  84.050  20.582  0.00  0.00     0.131 H 
ATOM    103  H   SGN d 904     -23.753  84.912  19.174  0.00  0.00     0.091 H 
ATOM    104  H   SGN d 904     -22.423  84.075  21.132  0.00  0.00     0.076 H 
ATOM    105  H   SGN d 904     -23.044  85.781  16.537  0.00  0.00     0.080 H 
ATOM    106  H   SGN d 904     -21.366  86.182  16.681  0.00  0.00     0.080 H 
ENDROOT
TORSDOF 33
ENDMDL
MODEL 24
REMARK VINA RESULT:      -7.3      4.445     10.153
REMARK  0 active torsions:
REMARK  status: ('A' for Active; 'I' for Inactive)
REMARK       I    between atoms: C3_1  and  O3_18 
REMARK       I    between atoms: O6_3  and  C6_41 
REMARK       I    between atoms: O6_3  and  S2_27 
REMARK       I    between atoms: C1_4  and  O1_67 
REMARK       I    between atoms: O2_6  and  C2_60 
REMARK       I    between atoms: O2_6  and  S_64 
REMARK       I    between atoms: C5_7  and  C6_41 
REMARK       I    between atoms: C6_9  and  C5_36 
REMARK       I    between atoms: N_10  and  C2_26 
REMARK       I    between atoms: N_10  and  S1_14 
REMARK       I    between atoms: O2_12  and  C2_39 
REMARK       I    between atoms: O2_12  and  S_34 
REMARK       I    between atoms: C3_13  and  O3_44 
REMARK       I    between atoms: S1_14  and  O1S_57 
REMARK       I    between atoms: S1_14  and  O2S_48 
REMARK       I    between atoms: S1_14  and  O3S_38 
REMARK       I    between atoms: C6_16  and  C5_68 
REMARK       I    between atoms: C4_17  and  O4_62 
REMARK       I    between atoms: N_21  and  C2_65 
REMARK       I    between atoms: N_21  and  S1_69 
REMARK       I    between atoms: C3_25  and  O3_30 
REMARK       I    between atoms: O3S_29  and  S1_69 
REMARK       I    between atoms: O4_31  and  C1_42 
REMARK       I    between atoms: O4_31  and  C4_63 
REMARK       I    between atoms: S2_35  and  O6_49 
REMARK       I    between atoms: O1_37  and  C1_61 
REMARK       I    between atoms: O2S_45  and  S1_69 
REMARK       I    between atoms: O3_46  and  C3_55 
REMARK       I    between atoms: C5_47  and  C6_66 
REMARK       I    between atoms: O6_49  and  C6_66 
REMARK       I    between atoms: O1S_52  and  S1_69 
REMARK       I    between atoms: C1_54  and  O4_62 
REMARK       I    between atoms: C4_59  and  O1_67 
ROOT
ATOM      1  C3  UAP d 901     -35.511  84.308  15.485  0.00  0.00     0.086 C 
ATOM      2  O1S UAP d 901     -37.914  87.077  18.351  0.00  0.00    -0.572 OA
ATOM      3  C6  UAP d 901     -36.195  80.713  15.307  0.00  0.00     0.233 C 
ATOM      4  O2  UAP d 901     -36.501  84.967  17.584  0.00  0.00    -0.244 OA
ATOM      5  O3  UAP d 901     -34.389  84.855  14.826  0.00  0.00    -0.389 OA
ATOM      6  O61 UAP d 901     -36.215  80.582  14.062  0.00  0.00    -0.642 OA
ATOM      7  O5  UAP d 901     -35.950  82.069  17.165  0.00  0.00    -0.311 OA
ATOM      8  O2S UAP d 901     -36.351  87.405  16.549  0.00  0.00    -0.572 OA
ATOM      9  S   UAP d 901     -36.582  86.715  17.831  0.00  0.00     0.252 S 
ATOM     10  C5  UAP d 901     -35.962  81.916  15.832  0.00  0.00     0.147 C 
ATOM     11  C2  UAP d 901     -35.332  84.395  17.002  0.00  0.00     0.135 C 
ATOM     12  O62 UAP d 901     -36.399  79.743  16.069  0.00  0.00    -0.642 OA
ATOM     13  O3S UAP d 901     -35.547  87.120  18.801  0.00  0.00    -0.572 OA
ATOM     14  C4  UAP d 901     -35.753  82.961  15.011  0.00  0.00    -0.034 C 
ATOM     15  C1  UAP d 901     -35.039  83.050  17.653  0.00  0.00     0.167 C 
ATOM     16  H   UAP d 901     -36.386  84.878  15.254  0.00  0.00     0.093 H 
ATOM     17  H   UAP d 901     -33.601  84.331  15.042  0.00  0.00     0.210 HD
ATOM     18  H   UAP d 901     -34.478  85.014  17.180  0.00  0.00     0.097 H 
ATOM     19  H   UAP d 901     -35.767  82.794  13.993  0.00  0.00     0.085 H 
ATOM     20  H   UAP d 901     -35.167  83.123  18.713  0.00  0.00     0.134 H 
ATOM     21  O1S IDS d 903     -24.671  79.083  23.713  0.00  0.00    -0.572 OA
ATOM     22  O2  IDS d 903     -26.248  79.651  21.666  0.00  0.00    -0.244 OA
ATOM     23  O5  IDS d 903     -26.880  81.277  18.534  0.00  0.00    -0.340 OA
ATOM     24  C6  IDS d 903     -28.569  82.700  17.682  0.00  0.00     0.206 C 
ATOM     25  O2S IDS d 903     -25.441  81.362  23.523  0.00  0.00    -0.572 OA
ATOM     26  C3  IDS d 903     -28.245  80.175  20.489  0.00  0.00     0.094 C 
ATOM     27  O3S IDS d 903     -26.967  79.623  24.207  0.00  0.00    -0.572 OA
ATOM     28  O3  IDS d 903     -28.999  79.864  21.641  0.00  0.00    -0.390 OA
ATOM     29  O61 IDS d 903     -29.433  83.587  17.804  0.00  0.00    -0.646 OA
ATOM     30  C1  IDS d 903     -26.042  80.895  19.636  0.00  0.00     0.161 C 
ATOM     31  C4  IDS d 903     -28.946  81.297  19.712  0.00  0.00     0.103 C 
ATOM     32  C2  IDS d 903     -26.880  80.672  20.903  0.00  0.00     0.134 C 
ATOM     33  S   IDS d 903     -25.809  79.945  23.347  0.00  0.00     0.252 S 
ATOM     34  C5  IDS d 903     -27.928  82.145  18.939  0.00  0.00     0.152 C 
ATOM     35  O62 IDS d 903     -28.201  82.252  16.572  0.00  0.00    -0.646 OA
ATOM     36  H   IDS d 903     -28.154  79.300  19.881  0.00  0.00     0.091 H 
ATOM     37  H   IDS d 903     -29.082  80.656  22.195  0.00  0.00     0.210 HD
ATOM     38  H   IDS d 903     -25.532  79.993  19.371  0.00  0.00     0.133 H 
ATOM     39  H   IDS d 903     -29.467  81.917  20.411  0.00  0.00     0.092 H 
ATOM     40  H   IDS d 903     -26.967  81.576  21.467  0.00  0.00     0.097 H 
ATOM     41  H   IDS d 903     -27.577  82.948  19.553  0.00  0.00     0.104 H 
ATOM     42  O6  SGN d 902     -34.094  82.162  20.943  0.00  0.00    -0.254 OA
ATOM     43  C1  SGN d 902     -31.014  80.107  19.320  0.00  0.00     0.150 C 
ATOM     44  C5  SGN d 902     -32.333  82.137  19.321  0.00  0.00     0.091 C 
ATOM     45  N   SGN d 902     -31.052  78.633  17.388  0.00  0.00    -0.210 NA
ATOM     46  S1  SGN d 902     -30.729  76.991  17.961  0.00  0.00     0.156 S 
ATOM     47  C4  SGN d 902     -33.212  81.597  18.192  0.00  0.00     0.095 C 
ATOM     48  O5S SGN d 902     -35.344  83.173  23.042  0.00  0.00    -0.572 OA
ATOM     49  C2  SGN d 902     -31.862  79.525  18.192  0.00  0.00     0.081 C 
ATOM     50  S2  SGN d 902     -35.571  82.850  21.620  0.00  0.00     0.251 S 
ATOM     51  O3S SGN d 902     -30.309  77.034  19.374  0.00  0.00    -0.296 OA
ATOM     52  C6  SGN d 902     -33.161  83.000  20.263  0.00  0.00     0.067 C 
ATOM     53  O3  SGN d 902     -33.197  80.128  16.289  0.00  0.00    -0.391 OA
ATOM     54  O2S SGN d 902     -31.955  76.181  17.840  0.00  0.00    -0.296 OA
ATOM     55  O6S SGN d 902     -35.924  84.077  20.880  0.00  0.00    -0.572 OA
ATOM     56  C3  SGN d 902     -32.393  80.655  17.320  0.00  0.00     0.083 C 
ATOM     57  O5  SGN d 902     -31.806  81.034  20.075  0.00  0.00    -0.349 OA
ATOM     58  O1S SGN d 902     -29.658  76.390  17.145  0.00  0.00    -0.296 OA
ATOM     59  O4S SGN d 902     -36.669  81.871  21.502  0.00  0.00    -0.572 OA
ATOM     60  O4  SGN d 902     -33.686  82.680  17.391  0.00  0.00    -0.348 OA
ATOM     61  O1  SGN d 902     -29.847  80.718  18.766  0.00  0.00    -0.348 OA
ATOM     62  H   SGN d 902     -30.690  79.336  19.988  0.00  0.00     0.131 H 
ATOM     63  H   SGN d 902     -31.543  82.719  18.895  0.00  0.00     0.090 H 
ATOM     64  H   SGN d 902     -30.146  79.087  17.263  0.00  0.00     0.140 HD
ATOM     65  H   SGN d 902     -34.044  81.072  18.614  0.00  0.00     0.091 H 
ATOM     66  H   SGN d 902     -32.683  78.979  18.608  0.00  0.00     0.076 H 
ATOM     67  H   SGN d 902     -29.502  77.566  19.455  0.00  0.00     0.231 HD
ATOM     68  H   SGN d 902     -32.519  83.476  20.975  0.00  0.00     0.080 H 
ATOM     69  H   SGN d 902     -33.681  83.753  19.709  0.00  0.00     0.080 H 
ATOM     70  H   SGN d 902     -33.532  80.853  15.738  0.00  0.00     0.210 HD
ATOM     71  H   SGN d 902     -32.234  76.151  16.911  0.00  0.00     0.231 HD
ATOM     72  H   SGN d 902     -31.579  81.188  16.877  0.00  0.00     0.089 H 
ATOM     73  H   SGN d 902     -29.936  76.361  16.216  0.00  0.00     0.231 HD
ATOM     74  O4S SGN d 904     -23.074  77.295  17.798  0.00  0.00    -0.572 OA
ATOM     75  O5S SGN d 904     -21.900  77.091  19.894  0.00  0.00    -0.572 OA
ATOM     76  C3  SGN d 904     -23.972  83.430  18.450  0.00  0.00     0.083 C 
ATOM     77  N   SGN d 904     -22.630  84.918  17.104  0.00  0.00    -0.210 NA
ATOM     78  O5  SGN d 904     -21.591  81.985  19.028  0.00  0.00    -0.350 OA
ATOM     79  O6S SGN d 904     -24.243  77.641  19.883  0.00  0.00    -0.572 OA
ATOM     80  O3S SGN d 904     -21.540  84.001  14.896  0.00  0.00    -0.296 OA
ATOM     81  O4  SGN d 904     -25.126  81.951  19.914  0.00  0.00    -0.348 OA
ATOM     82  S2  SGN d 904     -22.961  77.815  19.174  0.00  0.00     0.251 S 
ATOM     83  O1  SGN d 904     -21.424  84.280  19.539  0.00  0.00    -0.369 OA
ATOM     84  O3  SGN d 904     -25.088  83.638  17.614  0.00  0.00    -0.391 OA
ATOM     85  O2S SGN d 904     -22.002  86.372  14.986  0.00  0.00    -0.296 OA
ATOM     86  C5  SGN d 904     -22.743  81.772  19.850  0.00  0.00     0.091 C 
ATOM     87  O6  SGN d 904     -22.557  79.526  19.122  0.00  0.00    -0.254 OA
ATOM     88  O1S SGN d 904     -20.178  85.440  16.269  0.00  0.00    -0.296 OA
ATOM     89  C1  SGN d 904     -21.486  83.308  18.491  0.00  0.00     0.147 C 
ATOM     90  C4  SGN d 904     -24.010  82.025  19.032  0.00  0.00     0.095 C 
ATOM     91  C2  SGN d 904     -22.708  83.577  17.625  0.00  0.00     0.081 C 
ATOM     92  C6  SGN d 904     -22.712  80.323  20.294  0.00  0.00     0.067 C 
ATOM     93  S1  SGN d 904     -21.537  85.200  15.754  0.00  0.00     0.156 S 
ATOM     94  H   SGN d 904     -23.990  84.146  19.245  0.00  0.00     0.089 H 
ATOM     95  H   SGN d 904     -22.337  85.527  17.868  0.00  0.00     0.140 HD
ATOM     96  H   SGN d 904     -22.436  83.847  14.559  0.00  0.00     0.231 HD
ATOM     97  H   SGN d 904     -20.645  84.110  20.092  0.00  0.00     0.212 HD
ATOM     98  H   SGN d 904     -25.075  82.991  16.892  0.00  0.00     0.210 HD
ATOM     99  H   SGN d 904     -22.897  86.205  14.650  0.00  0.00     0.231 HD
ATOM    100  H   SGN d 904     -22.740  82.433  20.691  0.00  0.00     0.090 H 
ATOM    101  H   SGN d 904     -19.881  84.665  16.773  0.00  0.00     0.231 HD
ATOM    102  H   SGN d 904     -20.589  83.381  17.912  0.00  0.00     0.131 H 
ATOM    103  H   SGN d 904     -24.081  81.305  18.244  0.00  0.00     0.091 H 
ATOM    104  H   SGN d 904     -22.733  82.872  16.820  0.00  0.00     0.076 H 
ATOM    105  H   SGN d 904     -23.627  80.072  20.790  0.00  0.00     0.080 H 
ATOM    106  H   SGN d 904     -21.908  80.153  20.979  0.00  0.00     0.080 H 
ENDROOT
TORSDOF 33
ENDMDL
MODEL 25
REMARK VINA RESULT:      -7.3      4.675     10.139
REMARK  0 active torsions:
REMARK  status: ('A' for Active; 'I' for Inactive)
REMARK       I    between atoms: C3_1  and  O3_18 
REMARK       I    between atoms: O6_3  and  C6_41 
REMARK       I    between atoms: O6_3  and  S2_27 
REMARK       I    between atoms: C1_4  and  O1_67 
REMARK       I    between atoms: O2_6  and  C2_60 
REMARK       I    between atoms: O2_6  and  S_64 
REMARK       I    between atoms: C5_7  and  C6_41 
REMARK       I    between atoms: C6_9  and  C5_36 
REMARK       I    between atoms: N_10  and  C2_26 
REMARK       I    between atoms: N_10  and  S1_14 
REMARK       I    between atoms: O2_12  and  C2_39 
REMARK       I    between atoms: O2_12  and  S_34 
REMARK       I    between atoms: C3_13  and  O3_44 
REMARK       I    between atoms: S1_14  and  O1S_57 
REMARK       I    between atoms: S1_14  and  O2S_48 
REMARK       I    between atoms: S1_14  and  O3S_38 
REMARK       I    between atoms: C6_16  and  C5_68 
REMARK       I    between atoms: C4_17  and  O4_62 
REMARK       I    between atoms: N_21  and  C2_65 
REMARK       I    between atoms: N_21  and  S1_69 
REMARK       I    between atoms: C3_25  and  O3_30 
REMARK       I    between atoms: O3S_29  and  S1_69 
REMARK       I    between atoms: O4_31  and  C1_42 
REMARK       I    between atoms: O4_31  and  C4_63 
REMARK       I    between atoms: S2_35  and  O6_49 
REMARK       I    between atoms: O1_37  and  C1_61 
REMARK       I    between atoms: O2S_45  and  S1_69 
REMARK       I    between atoms: O3_46  and  C3_55 
REMARK       I    between atoms: C5_47  and  C6_66 
REMARK       I    between atoms: O6_49  and  C6_66 
REMARK       I    between atoms: O1S_52  and  S1_69 
REMARK       I    between atoms: C1_54  and  O4_62 
REMARK       I    between atoms: C4_59  and  O1_67 
ROOT
ATOM      1  C3  UAP d 901     -35.570  84.607  14.218  0.00  0.00     0.086 C 
ATOM      2  O1S UAP d 901     -37.976  87.668  16.767  0.00  0.00    -0.572 OA
ATOM      3  C6  UAP d 901     -36.101  81.000  14.587  0.00  0.00     0.233 C 
ATOM      4  O2  UAP d 901     -36.503  85.524  16.244  0.00  0.00    -0.244 OA
ATOM      5  O3  UAP d 901     -34.500  85.095  13.437  0.00  0.00    -0.389 OA
ATOM      6  O61 UAP d 901     -36.165  80.690  13.375  0.00  0.00    -0.642 OA
ATOM      7  O5  UAP d 901     -35.842  82.619  16.218  0.00  0.00    -0.311 OA
ATOM      8  O2S UAP d 901     -36.503  87.791  14.867  0.00  0.00    -0.572 OA
ATOM      9  S   UAP d 901     -36.652  87.285  16.243  0.00  0.00     0.252 S 
ATOM     10  C5  UAP d 901     -35.900  82.275  14.923  0.00  0.00     0.147 C 
ATOM     11  C2  UAP d 901     -35.335  84.919  15.697  0.00  0.00     0.135 C 
ATOM     12  O62 UAP d 901     -36.231  80.144  15.487  0.00  0.00    -0.642 OA
ATOM     13  O3S UAP d 901     -35.598  87.865  17.097  0.00  0.00    -0.572 OA
ATOM     14  C4  UAP d 901     -35.771  83.197  13.953  0.00  0.00    -0.034 C 
ATOM     15  C1  UAP d 901     -34.956  83.695  16.519  0.00  0.00     0.167 C 
ATOM     16  H   UAP d 901     -36.478  85.104  13.948  0.00  0.00     0.093 H 
ATOM     17  H   UAP d 901     -33.682  84.639  13.689  0.00  0.00     0.210 HD
ATOM     18  H   UAP d 901     -34.502  85.589  15.745  0.00  0.00     0.097 H 
ATOM     19  H   UAP d 901     -35.818  82.885  12.971  0.00  0.00     0.085 H 
ATOM     20  H   UAP d 901     -35.045  83.914  17.563  0.00  0.00     0.134 H 
ATOM     21  O1S IDS d 903     -24.189  81.042  22.601  0.00  0.00    -0.572 OA
ATOM     22  O2  IDS d 903     -25.870  81.248  20.568  0.00  0.00    -0.244 OA
ATOM     23  O5  IDS d 903     -26.698  82.379  17.268  0.00  0.00    -0.340 OA
ATOM     24  C6  IDS d 903     -28.482  83.598  16.301  0.00  0.00     0.206 C 
ATOM     25  O2S IDS d 903     -25.067  83.238  22.124  0.00  0.00    -0.572 OA
ATOM     26  C3  IDS d 903     -27.934  81.519  19.421  0.00  0.00     0.094 C 
ATOM     27  O3S IDS d 903     -26.485  81.560  23.117  0.00  0.00    -0.572 OA
ATOM     28  O3  IDS d 903     -28.626  81.350  20.639  0.00  0.00    -0.390 OA
ATOM     29  O61 IDS d 903     -29.378  84.461  16.335  0.00  0.00    -0.646 OA
ATOM     30  C1  IDS d 903     -25.801  82.193  18.374  0.00  0.00     0.161 C 
ATOM     31  C4  IDS d 903     -28.715  82.490  18.525  0.00  0.00     0.103 C 
ATOM     32  C2  IDS d 903     -26.577  82.123  19.697  0.00  0.00     0.134 C 
ATOM     33  S   IDS d 903     -25.378  81.798  22.168  0.00  0.00     0.252 S 
ATOM     34  C5  IDS d 903     -27.766  83.255  17.593  0.00  0.00     0.152 C 
ATOM     35  O62 IDS d 903     -28.139  83.009  15.250  0.00  0.00    -0.646 OA
ATOM     36  H   IDS d 903     -27.829  80.570  18.941  0.00  0.00     0.091 H 
ATOM     37  H   IDS d 903     -28.723  82.210  21.078  0.00  0.00     0.210 HD
ATOM     38  H   IDS d 903     -25.262  81.281  18.217  0.00  0.00     0.133 H 
ATOM     39  H   IDS d 903     -29.234  83.184  19.152  0.00  0.00     0.092 H 
ATOM     40  H   IDS d 903     -26.681  83.095  20.130  0.00  0.00     0.097 H 
ATOM     41  H   IDS d 903     -27.428  84.151  18.070  0.00  0.00     0.104 H 
ATOM     42  O6  SGN d 902     -33.843  83.328  19.855  0.00  0.00    -0.254 OA
ATOM     43  C1  SGN d 902     -30.742  81.178  18.403  0.00  0.00     0.150 C 
ATOM     44  C5  SGN d 902     -32.148  83.136  18.175  0.00  0.00     0.091 C 
ATOM     45  N   SGN d 902     -30.791  79.440  16.704  0.00  0.00    -0.210 NA
ATOM     46  S1  SGN d 902     -30.373  77.911  17.490  0.00  0.00     0.156 S 
ATOM     47  C4  SGN d 902     -33.047  82.405  17.176  0.00  0.00     0.095 C 
ATOM     48  O5S SGN d 902     -35.051  84.583  21.844  0.00  0.00    -0.572 OA
ATOM     49  C2  SGN d 902     -31.608  80.407  17.409  0.00  0.00     0.081 C 
ATOM     50  S2  SGN d 902     -35.320  84.049  20.494  0.00  0.00     0.251 S 
ATOM     51  O3S SGN d 902     -29.900  78.175  18.862  0.00  0.00    -0.296 OA
ATOM     52  C6  SGN d 902     -32.975  84.093  19.021  0.00  0.00     0.067 C 
ATOM     53  O3  SGN d 902     -33.043  80.678  15.503  0.00  0.00    -0.391 OA
ATOM     54  O2S SGN d 902     -31.567  77.047  17.543  0.00  0.00    -0.296 OA
ATOM     55  O6S SGN d 902     -35.756  85.142  19.604  0.00  0.00    -0.572 OA
ATOM     56  C3  SGN d 902     -32.223  81.379  16.411  0.00  0.00     0.083 C 
ATOM     57  O5  SGN d 902     -31.543  82.174  19.053  0.00  0.00    -0.349 OA
ATOM     58  O1S SGN d 902     -29.310  77.240  16.721  0.00  0.00    -0.296 OA
ATOM     59  O4S SGN d 902     -36.377  83.022  20.568  0.00  0.00    -0.572 OA
ATOM     60  O4  SGN d 902     -33.600  83.342  16.251  0.00  0.00    -0.348 OA
ATOM     61  O1  SGN d 902     -29.626  81.747  17.714  0.00  0.00    -0.348 OA
ATOM     62  H   SGN d 902     -30.358  80.525  19.158  0.00  0.00     0.131 H 
ATOM     63  H   SGN d 902     -31.402  83.680  17.634  0.00  0.00     0.090 H 
ATOM     64  H   SGN d 902     -29.913  79.905  16.475  0.00  0.00     0.140 HD
ATOM     65  H   SGN d 902     -33.837  81.915  17.706  0.00  0.00     0.091 H 
ATOM     66  H   SGN d 902     -32.386  79.897  17.937  0.00  0.00     0.076 H 
ATOM     67  H   SGN d 902     -29.114  78.743  18.829  0.00  0.00     0.231 HD
ATOM     68  H   SGN d 902     -32.327  84.692  19.627  0.00  0.00     0.080 H 
ATOM     69  H   SGN d 902     -33.549  84.738  18.389  0.00  0.00     0.080 H 
ATOM     70  H   SGN d 902     -33.431  81.302  14.870  0.00  0.00     0.210 HD
ATOM     71  H   SGN d 902     -31.880  76.872  16.642  0.00  0.00     0.231 HD
ATOM     72  H   SGN d 902     -31.451  81.873  15.859  0.00  0.00     0.089 H 
ATOM     73  H   SGN d 902     -29.624  77.067  15.819  0.00  0.00     0.231 HD
ATOM     74  O4S SGN d 904     -22.752  78.480  16.934  0.00  0.00    -0.572 OA
ATOM     75  O5S SGN d 904     -21.488  78.626  18.982  0.00  0.00    -0.572 OA
ATOM     76  C3  SGN d 904     -23.894  84.606  16.745  0.00  0.00     0.083 C 
ATOM     77  N   SGN d 904     -22.674  85.934  15.140  0.00  0.00    -0.210 NA
ATOM     78  O5  SGN d 904     -21.430  83.352  17.413  0.00  0.00    -0.350 OA
ATOM     79  O6S SGN d 904     -23.851  79.079  19.000  0.00  0.00    -0.572 OA
ATOM     80  O3S SGN d 904     -21.634  84.750  13.038  0.00  0.00    -0.296 OA
ATOM     81  O4  SGN d 904     -24.922  83.312  18.457  0.00  0.00    -0.348 OA
ATOM     82  S2  SGN d 904     -22.607  79.197  18.215  0.00  0.00     0.251 S 
ATOM     83  O1  SGN d 904     -21.345  85.701  17.583  0.00  0.00    -0.369 OA
ATOM     84  O3  SGN d 904     -25.051  84.649  15.940  0.00  0.00    -0.391 OA
ATOM     85  O2S SGN d 904     -22.196  87.089  12.809  0.00  0.00    -0.296 OA
ATOM     86  C5  SGN d 904     -22.538  83.216  18.309  0.00  0.00     0.091 C 
ATOM     87  O6  SGN d 904     -22.282  80.897  17.902  0.00  0.00    -0.254 OA
ATOM     88  O1S SGN d 904     -20.283  86.422  14.128  0.00  0.00    -0.296 OA
ATOM     89  C1  SGN d 904     -21.405  84.586  16.689  0.00  0.00     0.147 C 
ATOM     90  C4  SGN d 904     -23.846  83.300  17.522  0.00  0.00     0.095 C 
ATOM     91  C2  SGN d 904     -22.672  84.680  15.850  0.00  0.00     0.081 C 
ATOM     92  C6  SGN d 904     -22.425  81.848  18.954  0.00  0.00     0.067 C 
ATOM     93  S1  SGN d 904     -21.650  86.059  13.715  0.00  0.00     0.156 S 
ATOM     94  H   SGN d 904     -23.912  85.428  17.430  0.00  0.00     0.089 H 
ATOM     95  H   SGN d 904     -22.378  86.658  15.795  0.00  0.00     0.140 HD
ATOM     96  H   SGN d 904     -22.535  84.515  12.768  0.00  0.00     0.231 HD
ATOM     97  H   SGN d 904     -20.538  85.642  18.118  0.00  0.00     0.212 HD
ATOM     98  H   SGN d 904     -25.038  83.905  15.317  0.00  0.00     0.210 HD
ATOM     99  H   SGN d 904     -23.096  86.841  12.543  0.00  0.00     0.231 HD
ATOM    100  H   SGN d 904     -22.531  83.991  19.046  0.00  0.00     0.090 H 
ATOM    101  H   SGN d 904     -19.932  85.741  14.722  0.00  0.00     0.231 HD
ATOM    102  H   SGN d 904     -20.536  84.608  16.065  0.00  0.00     0.131 H 
ATOM    103  H   SGN d 904     -23.917  82.471  16.849  0.00  0.00     0.091 H 
ATOM    104  H   SGN d 904     -22.698  83.866  15.156  0.00  0.00     0.076 H 
ATOM    105  H   SGN d 904     -23.307  81.637  19.522  0.00  0.00     0.080 H 
ATOM    106  H   SGN d 904     -21.588  81.810  19.618  0.00  0.00     0.080 H 
ENDROOT
TORSDOF 33
ENDMDL
MODEL 26
REMARK VINA RESULT:      -7.3      4.509      9.954
REMARK  0 active torsions:
REMARK  status: ('A' for Active; 'I' for Inactive)
REMARK       I    between atoms: C3_1  and  O3_18 
REMARK       I    between atoms: O6_3  and  C6_41 
REMARK       I    between atoms: O6_3  and  S2_27 
REMARK       I    between atoms: C1_4  and  O1_67 
REMARK       I    between atoms: O2_6  and  C2_60 
REMARK       I    between atoms: O2_6  and  S_64 
REMARK       I    between atoms: C5_7  and  C6_41 
REMARK       I    between atoms: C6_9  and  C5_36 
REMARK       I    between atoms: N_10  and  C2_26 
REMARK       I    between atoms: N_10  and  S1_14 
REMARK       I    between atoms: O2_12  and  C2_39 
REMARK       I    between atoms: O2_12  and  S_34 
REMARK       I    between atoms: C3_13  and  O3_44 
REMARK       I    between atoms: S1_14  and  O1S_57 
REMARK       I    between atoms: S1_14  and  O2S_48 
REMARK       I    between atoms: S1_14  and  O3S_38 
REMARK       I    between atoms: C6_16  and  C5_68 
REMARK       I    between atoms: C4_17  and  O4_62 
REMARK       I    between atoms: N_21  and  C2_65 
REMARK       I    between atoms: N_21  and  S1_69 
REMARK       I    between atoms: C3_25  and  O3_30 
REMARK       I    between atoms: O3S_29  and  S1_69 
REMARK       I    between atoms: O4_31  and  C1_42 
REMARK       I    between atoms: O4_31  and  C4_63 
REMARK       I    between atoms: S2_35  and  O6_49 
REMARK       I    between atoms: O1_37  and  C1_61 
REMARK       I    between atoms: O2S_45  and  S1_69 
REMARK       I    between atoms: O3_46  and  C3_55 
REMARK       I    between atoms: C5_47  and  C6_66 
REMARK       I    between atoms: O6_49  and  C6_66 
REMARK       I    between atoms: O1S_52  and  S1_69 
REMARK       I    between atoms: C1_54  and  O4_62 
REMARK       I    between atoms: C4_59  and  O1_67 
ROOT
ATOM      1  C3  UAP d 901     -22.887  81.323  21.988  0.00  0.00     0.086 C 
ATOM      2  O1S UAP d 901     -19.544  79.130  19.607  0.00  0.00    -0.572 OA
ATOM      3  C6  UAP d 901     -23.854  80.225  25.347  0.00  0.00     0.233 C 
ATOM      4  O2  UAP d 901     -21.733  79.410  21.080  0.00  0.00    -0.244 OA
ATOM      5  O3  UAP d 901     -23.646  82.302  21.311  0.00  0.00    -0.389 OA
ATOM      6  O61 UAP d 901     -23.880  81.340  25.915  0.00  0.00    -0.642 OA
ATOM      7  O5  UAP d 901     -23.498  78.968  23.438  0.00  0.00    -0.311 OA
ATOM      8  O2S UAP d 901     -20.781  81.179  19.347  0.00  0.00    -0.572 OA
ATOM      9  S   UAP d 901     -20.892  79.724  19.557  0.00  0.00     0.252 S 
ATOM     10  C5  UAP d 901     -23.540  80.159  24.053  0.00  0.00     0.147 C 
ATOM     11  C2  UAP d 901     -23.027  79.967  21.294  0.00  0.00     0.135 C 
ATOM     12  O62 UAP d 901     -24.107  79.170  25.968  0.00  0.00    -0.642 OA
ATOM     13  O3S UAP d 901     -21.654  79.124  18.446  0.00  0.00    -0.572 OA
ATOM     14  C4  UAP d 901     -23.257  81.294  23.388  0.00  0.00    -0.034 C 
ATOM     15  C1  UAP d 901     -23.890  78.980  22.068  0.00  0.00     0.167 C 
ATOM     16  H   UAP d 901     -21.848  81.573  21.950  0.00  0.00     0.093 H 
ATOM     17  H   UAP d 901     -24.586  82.067  21.351  0.00  0.00     0.210 HD
ATOM     18  H   UAP d 901     -23.523  80.143  20.363  0.00  0.00     0.097 H 
ATOM     19  H   UAP d 901     -23.306  82.187  23.901  0.00  0.00     0.085 H 
ATOM     20  H   UAP d 901     -23.755  77.993  21.677  0.00  0.00     0.134 H 
ATOM     21  O1S IDS d 903     -35.016  73.813  18.988  0.00  0.00    -0.572 OA
ATOM     22  O2  IDS d 903     -33.326  75.637  19.892  0.00  0.00    -0.244 OA
ATOM     23  O5  IDS d 903     -32.005  78.971  19.917  0.00  0.00    -0.340 OA
ATOM     24  C6  IDS d 903     -29.853  79.934  19.719  0.00  0.00     0.206 C 
ATOM     25  O2S IDS d 903     -33.318  74.588  17.458  0.00  0.00    -0.572 OA
ATOM     26  C3  IDS d 903     -31.288  76.565  20.691  0.00  0.00     0.094 C 
ATOM     27  O3S IDS d 903     -32.722  73.138  19.291  0.00  0.00    -0.572 OA
ATOM     28  O3  IDS d 903     -30.762  75.264  20.842  0.00  0.00    -0.390 OA
ATOM     29  O61 IDS d 903     -28.687  79.957  19.282  0.00  0.00    -0.646 OA
ATOM     30  C1  IDS d 903     -32.939  77.962  19.498  0.00  0.00     0.161 C 
ATOM     31  C4  IDS d 903     -30.156  77.529  20.316  0.00  0.00     0.103 C 
ATOM     32  C2  IDS d 903     -32.299  76.568  19.569  0.00  0.00     0.134 C 
ATOM     33  S   IDS d 903     -33.610  74.238  18.860  0.00  0.00     0.252 S 
ATOM     34  C5  IDS d 903     -30.687  78.693  19.470  0.00  0.00     0.152 C 
ATOM     35  O62 IDS d 903     -30.367  80.888  20.346  0.00  0.00    -0.646 OA
ATOM     36  H   IDS d 903     -31.748  76.867  21.608  0.00  0.00     0.091 H 
ATOM     37  H   IDS d 903     -30.345  74.986  20.012  0.00  0.00     0.210 HD
ATOM     38  H   IDS d 903     -33.791  78.007  20.144  0.00  0.00     0.133 H 
ATOM     39  H   IDS d 903     -29.423  76.987  19.755  0.00  0.00     0.092 H 
ATOM     40  H   IDS d 903     -31.830  76.316  18.642  0.00  0.00     0.097 H 
ATOM     41  H   IDS d 903     -30.655  78.436  18.431  0.00  0.00     0.104 H 
ATOM     42  O6  SGN d 902     -25.168  75.788  21.240  0.00  0.00    -0.254 OA
ATOM     43  C1  SGN d 902     -28.819  77.164  22.297  0.00  0.00     0.150 C 
ATOM     44  C5  SGN d 902     -26.741  77.589  21.130  0.00  0.00     0.091 C 
ATOM     45  N   SGN d 902     -29.412  78.489  24.247  0.00  0.00    -0.210 NA
ATOM     46  S1  SGN d 902     -30.432  77.484  25.287  0.00  0.00     0.156 S 
ATOM     47  C4  SGN d 902     -26.176  78.321  22.349  0.00  0.00     0.095 C 
ATOM     48  O5S SGN d 902     -23.625  73.943  20.142  0.00  0.00    -0.572 OA
ATOM     49  C2  SGN d 902     -28.301  77.887  23.538  0.00  0.00     0.081 C 
ATOM     50  S2  SGN d 902     -23.546  75.127  21.019  0.00  0.00     0.251 S 
ATOM     51  O3S SGN d 902     -30.806  76.252  24.569  0.00  0.00    -0.296 OA
ATOM     52  C6  SGN d 902     -25.628  76.847  20.403  0.00  0.00     0.067 C 
ATOM     53  O3  SGN d 902     -26.815  79.629  24.263  0.00  0.00    -0.391 OA
ATOM     54  O2S SGN d 902     -29.686  77.131  26.509  0.00  0.00    -0.296 OA
ATOM     55  O6S SGN d 902     -22.681  76.150  20.401  0.00  0.00    -0.572 OA
ATOM     56  C3  SGN d 902     -27.316  78.972  23.121  0.00  0.00     0.083 C 
ATOM     57  O5  SGN d 902     -27.708  76.623  21.569  0.00  0.00    -0.349 OA
ATOM     58  O1S SGN d 902     -31.648  78.234  25.650  0.00  0.00    -0.296 OA
ATOM     59  O4S SGN d 902     -22.992  74.738  22.330  0.00  0.00    -0.572 OA
ATOM     60  O4  SGN d 902     -25.265  79.334  21.923  0.00  0.00    -0.348 OA
ATOM     61  O1  SGN d 902     -29.591  78.073  21.510  0.00  0.00    -0.348 OA
ATOM     62  H   SGN d 902     -29.457  76.350  22.571  0.00  0.00     0.131 H 
ATOM     63  H   SGN d 902     -27.189  78.306  20.474  0.00  0.00     0.090 H 
ATOM     64  H   SGN d 902     -30.023  78.903  23.543  0.00  0.00     0.140 HD
ATOM     65  H   SGN d 902     -25.666  77.620  22.976  0.00  0.00     0.091 H 
ATOM     66  H   SGN d 902     -27.809  77.186  24.180  0.00  0.00     0.076 H 
ATOM     67  H   SGN d 902     -31.297  76.483  23.764  0.00  0.00     0.231 HD
ATOM     68  H   SGN d 902     -26.003  76.444  19.485  0.00  0.00     0.080 H 
ATOM     69  H   SGN d 902     -24.824  77.517  20.183  0.00  0.00     0.080 H 
ATOM     70  H   SGN d 902     -26.188  80.318  23.990  0.00  0.00     0.210 HD
ATOM     71  H   SGN d 902     -29.438  77.940  26.983  0.00  0.00     0.231 HD
ATOM     72  H   SGN d 902     -27.807  79.693  22.503  0.00  0.00     0.089 H 
ATOM     73  H   SGN d 902     -31.400  79.044  26.123  0.00  0.00     0.231 HD
ATOM     74  O4S SGN d 904     -37.168  79.027  21.975  0.00  0.00    -0.572 OA
ATOM     75  O5S SGN d 904     -38.335  77.206  20.911  0.00  0.00    -0.572 OA
ATOM     76  C3  SGN d 904     -33.667  80.228  16.958  0.00  0.00     0.083 C 
ATOM     77  N   SGN d 904     -34.200  82.185  15.650  0.00  0.00    -0.210 NA
ATOM     78  O5  SGN d 904     -36.447  79.629  16.992  0.00  0.00    -0.350 OA
ATOM     79  O6S SGN d 904     -35.990  76.996  21.408  0.00  0.00    -0.572 OA
ATOM     80  O3S SGN d 904     -35.557  84.135  16.773  0.00  0.00    -0.296 OA
ATOM     81  O4  SGN d 904     -33.299  78.195  18.139  0.00  0.00    -0.348 OA
ATOM     82  S2  SGN d 904     -37.056  77.929  20.996  0.00  0.00     0.251 S 
ATOM     83  O1  SGN d 904     -35.593  79.914  14.815  0.00  0.00    -0.369 OA
ATOM     84  O3  SGN d 904     -32.564  80.885  17.540  0.00  0.00    -0.391 OA
ATOM     85  O2S SGN d 904     -34.099  84.731  14.940  0.00  0.00    -0.296 OA
ATOM     86  C5  SGN d 904     -35.516  78.600  17.343  0.00  0.00     0.091 C 
ATOM     87  O6  SGN d 904     -36.664  78.592  19.415  0.00  0.00    -0.254 OA
ATOM     88  O1S SGN d 904     -36.162  83.544  14.516  0.00  0.00    -0.296 OA
ATOM     89  C1  SGN d 904     -35.953  80.570  16.034  0.00  0.00     0.147 C 
ATOM     90  C4  SGN d 904     -34.258  79.230  17.942  0.00  0.00     0.095 C 
ATOM     91  C2  SGN d 904     -34.727  81.257  16.619  0.00  0.00     0.081 C 
ATOM     92  C6  SGN d 904     -36.188  77.728  18.386  0.00  0.00     0.067 C 
ATOM     93  S1  SGN d 904     -35.041  83.718  15.456  0.00  0.00     0.156 S 
ATOM     94  H   SGN d 904     -33.344  79.712  16.077  0.00  0.00     0.089 H 
ATOM     95  H   SGN d 904     -34.204  81.717  14.744  0.00  0.00     0.140 HD
ATOM     96  H   SGN d 904     -34.816  84.249  17.389  0.00  0.00     0.231 HD
ATOM     97  H   SGN d 904     -36.373  79.476  14.441  0.00  0.00     0.212 HD
ATOM     98  H   SGN d 904     -32.851  81.354  18.338  0.00  0.00     0.210 HD
ATOM     99  H   SGN d 904     -33.365  84.839  15.566  0.00  0.00     0.231 HD
ATOM    100  H   SGN d 904     -35.238  78.028  16.483  0.00  0.00     0.090 H 
ATOM    101  H   SGN d 904     -36.775  82.878  14.863  0.00  0.00     0.231 HD
ATOM    102  H   SGN d 904     -36.719  81.285  15.817  0.00  0.00     0.131 H 
ATOM    103  H   SGN d 904     -34.503  79.722  18.860  0.00  0.00     0.091 H 
ATOM    104  H   SGN d 904     -35.006  81.778  17.510  0.00  0.00     0.076 H 
ATOM    105  H   SGN d 904     -35.483  77.031  18.789  0.00  0.00     0.080 H 
ATOM    106  H   SGN d 904     -36.992  77.171  17.954  0.00  0.00     0.080 H 
ENDROOT
TORSDOF 33
ENDMDL
MODEL 27
REMARK VINA RESULT:      -7.3      4.195      8.392
REMARK  0 active torsions:
REMARK  status: ('A' for Active; 'I' for Inactive)
REMARK       I    between atoms: C3_1  and  O3_18 
REMARK       I    between atoms: O6_3  and  C6_41 
REMARK       I    between atoms: O6_3  and  S2_27 
REMARK       I    between atoms: C1_4  and  O1_67 
REMARK       I    between atoms: O2_6  and  C2_60 
REMARK       I    between atoms: O2_6  and  S_64 
REMARK       I    between atoms: C5_7  and  C6_41 
REMARK       I    between atoms: C6_9  and  C5_36 
REMARK       I    between atoms: N_10  and  C2_26 
REMARK       I    between atoms: N_10  and  S1_14 
REMARK       I    between atoms: O2_12  and  C2_39 
REMARK       I    between atoms: O2_12  and  S_34 
REMARK       I    between atoms: C3_13  and  O3_44 
REMARK       I    between atoms: S1_14  and  O1S_57 
REMARK       I    between atoms: S1_14  and  O2S_48 
REMARK       I    between atoms: S1_14  and  O3S_38 
REMARK       I    between atoms: C6_16  and  C5_68 
REMARK       I    between atoms: C4_17  and  O4_62 
REMARK       I    between atoms: N_21  and  C2_65 
REMARK       I    between atoms: N_21  and  S1_69 
REMARK       I    between atoms: C3_25  and  O3_30 
REMARK       I    between atoms: O3S_29  and  S1_69 
REMARK       I    between atoms: O4_31  and  C1_42 
REMARK       I    between atoms: O4_31  and  C4_63 
REMARK       I    between atoms: S2_35  and  O6_49 
REMARK       I    between atoms: O1_37  and  C1_61 
REMARK       I    between atoms: O2S_45  and  S1_69 
REMARK       I    between atoms: O3_46  and  C3_55 
REMARK       I    between atoms: C5_47  and  C6_66 
REMARK       I    between atoms: O6_49  and  C6_66 
REMARK       I    between atoms: O1S_52  and  S1_69 
REMARK       I    between atoms: C1_54  and  O4_62 
REMARK       I    between atoms: C4_59  and  O1_67 
ROOT
ATOM      1  C3  UAP d 901     -37.978  83.399  17.979  0.00  0.00     0.086 C 
ATOM      2  O1S UAP d 901     -40.500  81.675  21.491  0.00  0.00    -0.572 OA
ATOM      3  C6  UAP d 901     -37.478  81.493  14.890  0.00  0.00     0.233 C 
ATOM      4  O2  UAP d 901     -38.669  81.723  19.570  0.00  0.00    -0.244 OA
ATOM      5  O3  UAP d 901     -37.259  84.592  18.207  0.00  0.00    -0.389 OA
ATOM      6  O61 UAP d 901     -37.712  82.403  14.062  0.00  0.00    -0.642 OA
ATOM      7  O5  UAP d 901     -37.306  80.795  17.089  0.00  0.00    -0.311 OA
ATOM      8  O2S UAP d 901     -39.540  83.816  20.949  0.00  0.00    -0.572 OA
ATOM      9  S   UAP d 901     -39.262  82.376  21.102  0.00  0.00     0.252 S 
ATOM     10  C5  UAP d 901     -37.544  81.765  16.194  0.00  0.00     0.147 C 
ATOM     11  C2  UAP d 901     -37.527  82.310  18.953  0.00  0.00     0.135 C 
ATOM     12  O62 UAP d 901     -37.192  80.333  14.523  0.00  0.00    -0.642 OA
ATOM     13  O3S UAP d 901     -38.237  82.182  22.145  0.00  0.00    -0.572 OA
ATOM     14  C4  UAP d 901     -37.863  83.011  16.588  0.00  0.00    -0.034 C 
ATOM     15  C1  UAP d 901     -36.683  81.226  18.297  0.00  0.00     0.167 C 
ATOM     16  H   UAP d 901     -39.019  83.557  18.169  0.00  0.00     0.093 H 
ATOM     17  H   UAP d 901     -36.317  84.439  18.032  0.00  0.00     0.210 HD
ATOM     18  H   UAP d 901     -36.903  82.783  19.682  0.00  0.00     0.097 H 
ATOM     19  H   UAP d 901     -38.033  83.726  15.864  0.00  0.00     0.085 H 
ATOM     20  H   UAP d 901     -36.604  80.380  18.948  0.00  0.00     0.134 H 
ATOM     21  O1S IDS d 903     -24.567  78.135  20.199  0.00  0.00    -0.572 OA
ATOM     22  O2  IDS d 903     -26.633  79.475  19.231  0.00  0.00    -0.244 OA
ATOM     23  O5  IDS d 903     -28.397  82.538  18.627  0.00  0.00    -0.340 OA
ATOM     24  C6  IDS d 903     -30.595  83.324  19.017  0.00  0.00     0.206 C 
ATOM     25  O2S IDS d 903     -26.059  79.154  21.798  0.00  0.00    -0.572 OA
ATOM     26  C3  IDS d 903     -28.891  79.958  18.666  0.00  0.00     0.094 C 
ATOM     27  O3S IDS d 903     -26.759  77.202  20.568  0.00  0.00    -0.572 OA
ATOM     28  O3  IDS d 903     -29.245  78.626  18.968  0.00  0.00    -0.390 OA
ATOM     29  O61 IDS d 903     -31.656  83.366  19.668  0.00  0.00    -0.646 OA
ATOM     30  C1  IDS d 903     -27.271  81.774  19.085  0.00  0.00     0.161 C 
ATOM     31  C4  IDS d 903     -30.064  80.884  19.009  0.00  0.00     0.103 C 
ATOM     32  C2  IDS d 903     -27.707  80.365  19.511  0.00  0.00     0.134 C 
ATOM     33  S   IDS d 903     -25.974  78.452  20.505  0.00  0.00     0.252 S 
ATOM     34  C5  IDS d 903     -29.562  82.281  19.396  0.00  0.00     0.152 C 
ATOM     35  O62 IDS d 903     -30.341  84.105  18.072  0.00  0.00    -0.646 OA
ATOM     36  H   IDS d 903     -28.649  80.031  17.627  0.00  0.00     0.091 H 
ATOM     37  H   IDS d 903     -29.464  78.556  19.910  0.00  0.00     0.210 HD
ATOM     38  H   IDS d 903     -26.561  81.712  18.286  0.00  0.00     0.133 H 
ATOM     39  H   IDS d 903     -30.601  80.459  19.831  0.00  0.00     0.092 H 
ATOM     40  H   IDS d 903     -27.964  80.342  20.549  0.00  0.00     0.097 H 
ATOM     41  H   IDS d 903     -29.372  82.324  20.449  0.00  0.00     0.104 H 
ATOM     42  O6  SGN d 902     -34.838  78.520  19.631  0.00  0.00    -0.254 OA
ATOM     43  C1  SGN d 902     -31.666  79.862  17.514  0.00  0.00     0.150 C 
ATOM     44  C5  SGN d 902     -33.543  80.412  18.941  0.00  0.00     0.091 C 
ATOM     45  N   SGN d 902     -31.623  80.634  15.209  0.00  0.00    -0.210 NA
ATOM     46  S1  SGN d 902     -30.672  79.473  14.274  0.00  0.00     0.156 S 
ATOM     47  C4  SGN d 902     -34.413  80.719  17.721  0.00  0.00     0.095 C 
ATOM     48  O5S SGN d 902     -35.883  76.928  21.465  0.00  0.00    -0.572 OA
ATOM     49  C2  SGN d 902     -32.493  80.159  16.266  0.00  0.00     0.081 C 
ATOM     50  S2  SGN d 902     -36.283  77.807  20.349  0.00  0.00     0.251 S 
ATOM     51  O3S SGN d 902     -30.005  78.529  15.190  0.00  0.00    -0.296 OA
ATOM     52  C6  SGN d 902     -34.391  79.808  20.052  0.00  0.00     0.067 C 
ATOM     53  O3  SGN d 902     -34.317  81.489  15.446  0.00  0.00    -0.391 OA
ATOM     54  O2S SGN d 902     -31.565  78.726  13.368  0.00  0.00    -0.296 OA
ATOM     55  O6S SGN d 902     -37.162  78.881  20.850  0.00  0.00    -0.572 OA
ATOM     56  C3  SGN d 902     -33.533  81.226  16.587  0.00  0.00     0.083 C 
ATOM     57  O5  SGN d 902     -32.541  79.451  18.573  0.00  0.00    -0.349 OA
ATOM     58  O1S SGN d 902     -29.658  80.195  13.483  0.00  0.00    -0.296 OA
ATOM     59  O4S SGN d 902     -37.001  77.019  19.329  0.00  0.00    -0.572 OA
ATOM     60  O4  SGN d 902     -35.369  81.727  18.054  0.00  0.00    -0.348 OA
ATOM     61  O1  SGN d 902     -30.904  81.020  17.861  0.00  0.00    -0.348 OA
ATOM     62  H   SGN d 902     -30.978  79.064  17.332  0.00  0.00     0.131 H 
ATOM     63  H   SGN d 902     -33.092  81.321  19.282  0.00  0.00     0.090 H 
ATOM     64  H   SGN d 902     -30.962  81.281  15.639  0.00  0.00     0.140 HD
ATOM     65  H   SGN d 902     -34.921  79.828  17.418  0.00  0.00     0.091 H 
ATOM     66  H   SGN d 902     -32.987  79.266  15.944  0.00  0.00     0.076 H 
ATOM     67  H   SGN d 902     -29.416  79.018  15.786  0.00  0.00     0.231 HD
ATOM     68  H   SGN d 902     -33.806  79.713  20.943  0.00  0.00     0.080 H 
ATOM     69  H   SGN d 902     -35.231  80.439  20.255  0.00  0.00     0.080 H 
ATOM     70  H   SGN d 902     -34.977  82.169  15.657  0.00  0.00     0.210 HD
ATOM     71  H   SGN d 902     -32.005  79.345  12.765  0.00  0.00     0.231 HD
ATOM     72  H   SGN d 902     -33.047  82.132  16.882  0.00  0.00     0.089 H 
ATOM     73  H   SGN d 902     -30.099  80.815  12.881  0.00  0.00     0.231 HD
ATOM     74  O4S SGN d 904     -23.744  82.471  15.588  0.00  0.00    -0.572 OA
ATOM     75  O5S SGN d 904     -22.159  81.132  16.816  0.00  0.00    -0.572 OA
ATOM     76  C3  SGN d 904     -26.432  84.716  20.746  0.00  0.00     0.083 C 
ATOM     77  N   SGN d 904     -25.959  87.001  21.365  0.00  0.00    -0.210 NA
ATOM     78  O5  SGN d 904     -23.646  84.380  20.285  0.00  0.00    -0.350 OA
ATOM     79  O6S SGN d 904     -24.501  80.585  16.893  0.00  0.00    -0.572 OA
ATOM     80  O3S SGN d 904     -25.115  88.669  19.519  0.00  0.00    -0.296 OA
ATOM     81  O4  SGN d 904     -26.711  82.409  20.232  0.00  0.00    -0.348 OA
ATOM     82  S2  SGN d 904     -23.522  81.687  16.818  0.00  0.00     0.251 S 
ATOM     83  O1  SGN d 904     -24.132  85.188  22.445  0.00  0.00    -0.369 OA
ATOM     84  O3  SGN d 904     -27.703  85.084  20.260  0.00  0.00    -0.391 OA
ATOM     85  O2S SGN d 904     -26.294  89.624  21.401  0.00  0.00    -0.296 OA
ATOM     86  C5  SGN d 904     -24.468  83.216  20.414  0.00  0.00     0.091 C 
ATOM     87  O6  SGN d 904     -23.717  82.729  18.221  0.00  0.00    -0.254 OA
ATOM     88  O1S SGN d 904     -24.041  88.791  21.673  0.00  0.00    -0.296 OA
ATOM     89  C1  SGN d 904     -24.091  85.505  21.050  0.00  0.00     0.147 C 
ATOM     90  C4  SGN d 904     -25.889  83.539  19.951  0.00  0.00     0.095 C 
ATOM     91  C2  SGN d 904     -25.486  85.889  20.579  0.00  0.00     0.081 C 
ATOM     92  C6  SGN d 904     -23.876  82.149  19.514  0.00  0.00     0.067 C 
ATOM     93  S1  SGN d 904     -25.324  88.595  20.976  0.00  0.00     0.156 S 
ATOM     94  H   SGN d 904     -26.517  84.441  21.777  0.00  0.00     0.089 H 
ATOM     95  H   SGN d 904     -25.727  86.808  22.339  0.00  0.00     0.140 HD
ATOM     96  H   SGN d 904     -25.961  88.540  19.064  0.00  0.00     0.231 HD
ATOM     97  H   SGN d 904     -23.244  84.943  22.747  0.00  0.00     0.212 HD
ATOM     98  H   SGN d 904     -27.632  85.333  19.326  0.00  0.00     0.210 HD
ATOM     99  H   SGN d 904     -27.135  89.487  20.937  0.00  0.00     0.231 HD
ATOM    100  H   SGN d 904     -24.506  82.885  21.431  0.00  0.00     0.090 H 
ATOM    101  H   SGN d 904     -23.410  88.111  21.389  0.00  0.00     0.231 HD
ATOM    102  H   SGN d 904     -23.408  86.316  20.911  0.00  0.00     0.131 H 
ATOM    103  H   SGN d 904     -25.884  83.774  18.907  0.00  0.00     0.091 H 
ATOM    104  H   SGN d 904     -25.447  86.162  19.545  0.00  0.00     0.076 H 
ATOM    105  H   SGN d 904     -24.534  81.308  19.460  0.00  0.00     0.080 H 
ATOM    106  H   SGN d 904     -22.936  81.810  19.896  0.00  0.00     0.080 H 
ENDROOT
TORSDOF 33
ENDMDL
MODEL 28
REMARK VINA RESULT:      -7.3      4.606      7.157
REMARK  0 active torsions:
REMARK  status: ('A' for Active; 'I' for Inactive)
REMARK       I    between atoms: C3_1  and  O3_18 
REMARK       I    between atoms: O6_3  and  C6_41 
REMARK       I    between atoms: O6_3  and  S2_27 
REMARK       I    between atoms: C1_4  and  O1_67 
REMARK       I    between atoms: O2_6  and  C2_60 
REMARK       I    between atoms: O2_6  and  S_64 
REMARK       I    between atoms: C5_7  and  C6_41 
REMARK       I    between atoms: C6_9  and  C5_36 
REMARK       I    between atoms: N_10  and  C2_26 
REMARK       I    between atoms: N_10  and  S1_14 
REMARK       I    between atoms: O2_12  and  C2_39 
REMARK       I    between atoms: O2_12  and  S_34 
REMARK       I    between atoms: C3_13  and  O3_44 
REMARK       I    between atoms: S1_14  and  O1S_57 
REMARK       I    between atoms: S1_14  and  O2S_48 
REMARK       I    between atoms: S1_14  and  O3S_38 
REMARK       I    between atoms: C6_16  and  C5_68 
REMARK       I    between atoms: C4_17  and  O4_62 
REMARK       I    between atoms: N_21  and  C2_65 
REMARK       I    between atoms: N_21  and  S1_69 
REMARK       I    between atoms: C3_25  and  O3_30 
REMARK       I    between atoms: O3S_29  and  S1_69 
REMARK       I    between atoms: O4_31  and  C1_42 
REMARK       I    between atoms: O4_31  and  C4_63 
REMARK       I    between atoms: S2_35  and  O6_49 
REMARK       I    between atoms: O1_37  and  C1_61 
REMARK       I    between atoms: O2S_45  and  S1_69 
REMARK       I    between atoms: O3_46  and  C3_55 
REMARK       I    between atoms: C5_47  and  C6_66 
REMARK       I    between atoms: O6_49  and  C6_66 
REMARK       I    between atoms: O1S_52  and  S1_69 
REMARK       I    between atoms: C1_54  and  O4_62 
REMARK       I    between atoms: C4_59  and  O1_67 
ROOT
ATOM      1  C3  UAP d 901     -23.744  78.001  20.005  0.00  0.00     0.086 C 
ATOM      2  O1S UAP d 901     -22.223  78.855  24.321  0.00  0.00    -0.572 OA
ATOM      3  C6  UAP d 901     -22.032  79.397  17.082  0.00  0.00     0.233 C 
ATOM      4  O2  UAP d 901     -22.962  79.377  21.826  0.00  0.00    -0.244 OA
ATOM      5  O3  UAP d 901     -24.986  77.348  19.861  0.00  0.00    -0.389 OA
ATOM      6  O61 UAP d 901     -21.993  78.366  16.371  0.00  0.00    -0.642 OA
ATOM      7  O5  UAP d 901     -22.640  80.432  19.059  0.00  0.00    -0.311 OA
ATOM      8  O2S UAP d 901     -23.839  77.372  23.326  0.00  0.00    -0.572 OA
ATOM      9  S   UAP d 901     -23.396  78.774  23.430  0.00  0.00     0.252 S 
ATOM     10  C5  UAP d 901     -22.602  79.337  18.286  0.00  0.00     0.147 C 
ATOM     11  C2  UAP d 901     -23.918  79.313  20.771  0.00  0.00     0.135 C 
ATOM     12  O62 UAP d 901     -21.540  80.477  16.692  0.00  0.00    -0.642 OA
ATOM     13  O3S UAP d 901     -24.490  79.595  23.981  0.00  0.00    -0.572 OA
ATOM     14  C4  UAP d 901     -23.122  78.170  18.709  0.00  0.00    -0.034 C 
ATOM     15  C1  UAP d 901     -23.793  80.548  19.889  0.00  0.00     0.167 C 
ATOM     16  H   UAP d 901     -23.079  77.400  20.590  0.00  0.00     0.093 H 
ATOM     17  H   UAP d 901     -25.582  77.900  19.330  0.00  0.00     0.210 HD
ATOM     18  H   UAP d 901     -24.914  79.316  21.161  0.00  0.00     0.097 H 
ATOM     19  H   UAP d 901     -23.074  77.355  18.078  0.00  0.00     0.085 H 
ATOM     20  H   UAP d 901     -23.676  81.421  20.497  0.00  0.00     0.134 H 
ATOM     21  O1S IDS d 903     -32.442  89.283  16.914  0.00  0.00    -0.572 OA
ATOM     22  O2  IDS d 903     -31.132  86.988  16.790  0.00  0.00    -0.244 OA
ATOM     23  O5  IDS d 903     -31.052  83.403  16.786  0.00  0.00    -0.340 OA
ATOM     24  C6  IDS d 903     -29.870  81.740  17.986  0.00  0.00     0.206 C 
ATOM     25  O2S IDS d 903     -32.380  87.947  18.922  0.00  0.00    -0.572 OA
ATOM     26  C3  IDS d 903     -29.395  85.407  17.157  0.00  0.00     0.094 C 
ATOM     27  O3S IDS d 903     -30.400  89.108  18.182  0.00  0.00    -0.572 OA
ATOM     28  O3  IDS d 903     -28.567  86.440  17.646  0.00  0.00    -0.390 OA
ATOM     29  O61 IDS d 903     -29.304  81.304  19.005  0.00  0.00    -0.646 OA
ATOM     30  C1  IDS d 903     -31.724  84.673  16.792  0.00  0.00     0.161 C 
ATOM     31  C4  IDS d 903     -29.067  84.102  17.894  0.00  0.00     0.103 C 
ATOM     32  C2  IDS d 903     -30.839  85.752  17.431  0.00  0.00     0.134 C 
ATOM     33  S   IDS d 903     -31.614  88.389  17.743  0.00  0.00     0.252 S 
ATOM     34  C5  IDS d 903     -30.301  83.194  17.972  0.00  0.00     0.152 C 
ATOM     35  O62 IDS d 903     -30.106  81.034  16.979  0.00  0.00    -0.646 OA
ATOM     36  H   IDS d 903     -29.232  85.294  16.106  0.00  0.00     0.091 H 
ATOM     37  H   IDS d 903     -28.712  86.546  18.599  0.00  0.00     0.210 HD
ATOM     38  H   IDS d 903     -31.950  84.936  15.780  0.00  0.00     0.133 H 
ATOM     39  H   IDS d 903     -28.742  84.347  18.883  0.00  0.00     0.092 H 
ATOM     40  H   IDS d 903     -31.015  85.815  18.485  0.00  0.00     0.097 H 
ATOM     41  H   IDS d 903     -30.864  83.415  18.855  0.00  0.00     0.104 H 
ATOM     42  O6  SGN d 902     -24.386  83.979  20.508  0.00  0.00    -0.254 OA
ATOM     43  C1  SGN d 902     -26.746  83.987  17.226  0.00  0.00     0.150 C 
ATOM     44  C5  SGN d 902     -26.084  82.847  19.257  0.00  0.00     0.091 C 
ATOM     45  N   SGN d 902     -26.303  82.973  15.062  0.00  0.00    -0.210 NA
ATOM     46  S1  SGN d 902     -26.119  84.281  13.885  0.00  0.00     0.156 S 
ATOM     47  C4  SGN d 902     -25.101  81.973  18.476  0.00  0.00     0.095 C 
ATOM     48  O5S SGN d 902     -23.459  85.152  22.689  0.00  0.00    -0.572 OA
ATOM     49  C2  SGN d 902     -25.780  83.138  16.403  0.00  0.00     0.081 C 
ATOM     50  S2  SGN d 902     -23.167  84.023  21.784  0.00  0.00     0.251 S 
ATOM     51  O3S SGN d 902     -26.513  85.560  14.504  0.00  0.00    -0.296 OA
ATOM     52  C6  SGN d 902     -25.534  83.144  20.645  0.00  0.00     0.067 C 
ATOM     53  O3  SGN d 902     -24.710  80.990  16.318  0.00  0.00    -0.391 OA
ATOM     54  O2S SGN d 902     -24.711  84.358  13.457  0.00  0.00    -0.296 OA
ATOM     55  O6S SGN d 902     -23.203  82.756  22.539  0.00  0.00    -0.572 OA
ATOM     56  C3  SGN d 902     -25.619  81.773  17.058  0.00  0.00     0.083 C 
ATOM     57  O5  SGN d 902     -26.252  84.096  18.568  0.00  0.00    -0.349 OA
ATOM     58  O1S SGN d 902     -26.977  84.012  12.717  0.00  0.00    -0.296 OA
ATOM     59  O4S SGN d 902     -21.832  84.202  21.183  0.00  0.00    -0.572 OA
ATOM     60  O4  SGN d 902     -24.980  80.700  19.112  0.00  0.00    -0.348 OA
ATOM     61  O1  SGN d 902     -28.049  83.403  17.175  0.00  0.00    -0.348 OA
ATOM     62  H   SGN d 902     -26.818  84.976  16.825  0.00  0.00     0.131 H 
ATOM     63  H   SGN d 902     -27.017  82.329  19.339  0.00  0.00     0.090 H 
ATOM     64  H   SGN d 902     -27.304  82.795  15.154  0.00  0.00     0.140 HD
ATOM     65  H   SGN d 902     -24.146  82.454  18.451  0.00  0.00     0.091 H 
ATOM     66  H   SGN d 902     -24.829  83.626  16.355  0.00  0.00     0.076 H 
ATOM     67  H   SGN d 902     -27.440  85.512  14.786  0.00  0.00     0.231 HD
ATOM     68  H   SGN d 902     -26.278  83.646  21.229  0.00  0.00     0.080 H 
ATOM     69  H   SGN d 902     -25.268  82.231  21.136  0.00  0.00     0.080 H 
ATOM     70  H   SGN d 902     -24.612  80.122  16.740  0.00  0.00     0.210 HD
ATOM     71  H   SGN d 902     -24.449  83.517  13.050  0.00  0.00     0.231 HD
ATOM     72  H   SGN d 902     -26.560  81.266  17.085  0.00  0.00     0.089 H 
ATOM     73  H   SGN d 902     -26.716  83.170  12.311  0.00  0.00     0.231 HD
ATOM     74  O4S SGN d 904     -33.526  85.188  12.139  0.00  0.00    -0.572 OA
ATOM     75  O5S SGN d 904     -34.556  87.296  12.694  0.00  0.00    -0.572 OA
ATOM     76  C3  SGN d 904     -34.467  82.790  17.817  0.00  0.00     0.083 C 
ATOM     77  N   SGN d 904     -36.207  81.136  18.071  0.00  0.00    -0.210 NA
ATOM     78  O5  SGN d 904     -36.307  84.331  16.292  0.00  0.00    -0.350 OA
ATOM     79  O6S SGN d 904     -32.480  86.668  13.737  0.00  0.00    -0.572 OA
ATOM     80  O3S SGN d 904     -37.010  79.800  15.957  0.00  0.00    -0.296 OA
ATOM     81  O4  SGN d 904     -32.907  84.571  17.581  0.00  0.00    -0.348 OA
ATOM     82  S2  SGN d 904     -33.767  86.168  13.216  0.00  0.00     0.251 S 
ATOM     83  O1  SGN d 904     -37.136  83.745  18.418  0.00  0.00    -0.369 OA
ATOM     84  O3  SGN d 904     -33.474  81.790  17.865  0.00  0.00    -0.391 OA
ATOM     85  O2S SGN d 904     -37.266  78.713  18.100  0.00  0.00    -0.296 OA
ATOM     86  C5  SGN d 904     -35.132  84.968  16.802  0.00  0.00     0.091 C 
ATOM     87  O6  SGN d 904     -34.658  85.397  14.521  0.00  0.00    -0.254 OA
ATOM     88  O1S SGN d 904     -38.716  80.548  17.486  0.00  0.00    -0.296 OA
ATOM     89  C1  SGN d 904     -36.805  83.269  17.111  0.00  0.00     0.147 C 
ATOM     90  C4  SGN d 904     -34.008  83.940  16.934  0.00  0.00     0.095 C 
ATOM     91  C2  SGN d 904     -35.729  82.198  17.221  0.00  0.00     0.081 C 
ATOM     92  C6  SGN d 904     -34.728  86.029  15.798  0.00  0.00     0.067 C 
ATOM     93  S1  SGN d 904     -37.353  79.997  17.376  0.00  0.00     0.156 S 
ATOM     94  H   SGN d 904     -34.649  83.151  18.808  0.00  0.00     0.089 H 
ATOM     95  H   SGN d 904     -36.656  81.568  18.879  0.00  0.00     0.140 HD
ATOM     96  H   SGN d 904     -36.113  79.437  15.888  0.00  0.00     0.231 HD
ATOM     97  H   SGN d 904     -37.822  84.428  18.350  0.00  0.00     0.212 HD
ATOM     98  H   SGN d 904     -33.305  81.459  16.969  0.00  0.00     0.210 HD
ATOM     99  H   SGN d 904     -36.366  78.358  18.022  0.00  0.00     0.231 HD
ATOM    100  H   SGN d 904     -35.317  85.399  17.764  0.00  0.00     0.090 H 
ATOM    101  H   SGN d 904     -38.763  81.391  17.009  0.00  0.00     0.231 HD
ATOM    102  H   SGN d 904     -37.692  82.868  16.665  0.00  0.00     0.131 H 
ATOM    103  H   SGN d 904     -33.739  83.572  15.965  0.00  0.00     0.091 H 
ATOM    104  H   SGN d 904     -35.510  81.816  16.247  0.00  0.00     0.076 H 
ATOM    105  H   SGN d 904     -33.773  86.436  16.058  0.00  0.00     0.080 H 
ATOM    106  H   SGN d 904     -35.436  86.831  15.786  0.00  0.00     0.080 H 
ENDROOT
TORSDOF 33
ENDMDL
MODEL 29
REMARK VINA RESULT:      -7.3      1.291      1.449
REMARK  0 active torsions:
REMARK  status: ('A' for Active; 'I' for Inactive)
REMARK       I    between atoms: C3_1  and  O3_18 
REMARK       I    between atoms: O6_3  and  C6_41 
REMARK       I    between atoms: O6_3  and  S2_27 
REMARK       I    between atoms: C1_4  and  O1_67 
REMARK       I    between atoms: O2_6  and  C2_60 
REMARK       I    between atoms: O2_6  and  S_64 
REMARK       I    between atoms: C5_7  and  C6_41 
REMARK       I    between atoms: C6_9  and  C5_36 
REMARK       I    between atoms: N_10  and  C2_26 
REMARK       I    between atoms: N_10  and  S1_14 
REMARK       I    between atoms: O2_12  and  C2_39 
REMARK       I    between atoms: O2_12  and  S_34 
REMARK       I    between atoms: C3_13  and  O3_44 
REMARK       I    between atoms: S1_14  and  O1S_57 
REMARK       I    between atoms: S1_14  and  O2S_48 
REMARK       I    between atoms: S1_14  and  O3S_38 
REMARK       I    between atoms: C6_16  and  C5_68 
REMARK       I    between atoms: C4_17  and  O4_62 
REMARK       I    between atoms: N_21  and  C2_65 
REMARK       I    between atoms: N_21  and  S1_69 
REMARK       I    between atoms: C3_25  and  O3_30 
REMARK       I    between atoms: O3S_29  and  S1_69 
REMARK       I    between atoms: O4_31  and  C1_42 
REMARK       I    between atoms: O4_31  and  C4_63 
REMARK       I    between atoms: S2_35  and  O6_49 
REMARK       I    between atoms: O1_37  and  C1_61 
REMARK       I    between atoms: O2S_45  and  S1_69 
REMARK       I    between atoms: O3_46  and  C3_55 
REMARK       I    between atoms: C5_47  and  C6_66 
REMARK       I    between atoms: O6_49  and  C6_66 
REMARK       I    between atoms: O1S_52  and  S1_69 
REMARK       I    between atoms: C1_54  and  O4_62 
REMARK       I    between atoms: C4_59  and  O1_67 
ROOT
ATOM      1  C3  UAP d 901     -33.921  74.504  21.415  0.00  0.00     0.086 C 
ATOM      2  O1S UAP d 901     -31.619  73.706  25.380  0.00  0.00    -0.572 OA
ATOM      3  C6  UAP d 901     -32.438  73.688  18.165  0.00  0.00     0.233 C 
ATOM      4  O2  UAP d 901     -32.023  74.563  22.902  0.00  0.00    -0.244 OA
ATOM      5  O3  UAP d 901     -35.124  75.238  21.487  0.00  0.00    -0.389 OA
ATOM      6  O61 UAP d 901     -33.423  73.117  17.642  0.00  0.00    -0.642 OA
ATOM      7  O5  UAP d 901     -31.495  74.773  19.978  0.00  0.00    -0.311 OA
ATOM      8  O2S UAP d 901     -33.870  74.325  24.791  0.00  0.00    -0.572 OA
ATOM      9  S   UAP d 901     -32.445  74.658  24.616  0.00  0.00     0.252 S 
ATOM     10  C5  UAP d 901     -32.547  74.170  19.404  0.00  0.00     0.147 C 
ATOM     11  C2  UAP d 901     -32.757  75.335  21.955  0.00  0.00     0.135 C 
ATOM     12  O62 UAP d 901     -31.354  73.808  17.556  0.00  0.00    -0.642 OA
ATOM     13  O3S UAP d 901     -32.197  76.028  25.104  0.00  0.00    -0.572 OA
ATOM     14  C4  UAP d 901     -33.712  74.031  20.062  0.00  0.00    -0.034 C 
ATOM     15  C1  UAP d 901     -31.819  75.840  20.866  0.00  0.00     0.167 C 
ATOM     16  H   UAP d 901     -33.984  73.636  22.038  0.00  0.00     0.093 H 
ATOM     17  H   UAP d 901     -35.058  76.022  20.919  0.00  0.00     0.210 HD
ATOM     18  H   UAP d 901     -33.181  76.201  22.419  0.00  0.00     0.097 H 
ATOM     19  H   UAP d 901     -34.495  73.565  19.579  0.00  0.00     0.085 H 
ATOM     20  H   UAP d 901     -30.909  76.193  21.303  0.00  0.00     0.134 H 
ATOM     21  O1S IDS d 903     -29.360  87.675  17.146  0.00  0.00    -0.572 OA
ATOM     22  O2  IDS d 903     -30.662  85.377  17.313  0.00  0.00    -0.244 OA
ATOM     23  O5  IDS d 903     -33.647  83.486  17.920  0.00  0.00    -0.340 OA
ATOM     24  C6  IDS d 903     -34.228  81.643  19.288  0.00  0.00     0.206 C 
ATOM     25  O2S IDS d 903     -30.076  86.978  19.343  0.00  0.00    -0.572 OA
ATOM     26  C3  IDS d 903     -31.053  83.085  17.804  0.00  0.00     0.094 C 
ATOM     27  O3S IDS d 903     -28.241  85.851  18.255  0.00  0.00    -0.572 OA
ATOM     28  O3  IDS d 903     -29.673  82.906  18.039  0.00  0.00    -0.390 OA
ATOM     29  O61 IDS d 903     -34.118  80.952  20.317  0.00  0.00    -0.646 OA
ATOM     30  C1  IDS d 903     -32.912  84.710  17.762  0.00  0.00     0.161 C 
ATOM     31  C4  IDS d 903     -31.849  82.152  18.725  0.00  0.00     0.103 C 
ATOM     32  C2  IDS d 903     -31.436  84.508  18.132  0.00  0.00     0.134 C 
ATOM     33  S   IDS d 903     -29.541  86.522  18.047  0.00  0.00     0.252 S 
ATOM     34  C5  IDS d 903     -33.221  82.754  19.059  0.00  0.00     0.152 C 
ATOM     35  O62 IDS d 903     -35.133  81.469  18.440  0.00  0.00    -0.646 OA
ATOM     36  H   IDS d 903     -31.267  82.868  16.778  0.00  0.00     0.091 H 
ATOM     37  H   IDS d 903     -29.476  83.102  18.968  0.00  0.00     0.210 HD
ATOM     38  H   IDS d 903     -32.995  85.020  16.741  0.00  0.00     0.133 H 
ATOM     39  H   IDS d 903     -31.292  82.014  19.628  0.00  0.00     0.092 H 
ATOM     40  H   IDS d 903     -31.272  84.710  19.169  0.00  0.00     0.097 H 
ATOM     41  H   IDS d 903     -33.150  83.366  19.933  0.00  0.00     0.104 H 
ATOM     42  O6  SGN d 902     -29.106  78.106  20.932  0.00  0.00    -0.254 OA
ATOM     43  C1  SGN d 902     -30.907  80.083  17.901  0.00  0.00     0.150 C 
ATOM     44  C5  SGN d 902     -31.151  78.970  20.037  0.00  0.00     0.091 C 
ATOM     45  N   SGN d 902     -31.951  79.148  15.915  0.00  0.00    -0.210 NA
ATOM     46  S1  SGN d 902     -30.978  79.634  14.519  0.00  0.00     0.156 S 
ATOM     47  C4  SGN d 902     -31.543  77.666  19.341  0.00  0.00     0.095 C 
ATOM     48  O5S SGN d 902     -27.237  77.944  22.796  0.00  0.00    -0.572 OA
ATOM     49  C2  SGN d 902     -31.294  78.806  17.160  0.00  0.00     0.081 C 
ATOM     50  S2  SGN d 902     -28.214  77.103  22.078  0.00  0.00     0.251 S 
ATOM     51  O3S SGN d 902     -29.979  80.635  14.938  0.00  0.00    -0.296 OA
ATOM     52  C6  SGN d 902     -30.361  78.672  21.304  0.00  0.00     0.067 C 
ATOM     53  O3  SGN d 902     -32.585  76.791  17.359  0.00  0.00    -0.391 OA
ATOM     54  O2S SGN d 902     -30.286  78.453  13.971  0.00  0.00    -0.296 OA
ATOM     55  O6S SGN d 902     -29.158  76.502  23.040  0.00  0.00    -0.572 OA
ATOM     56  C3  SGN d 902     -32.240  77.984  18.025  0.00  0.00     0.083 C 
ATOM     57  O5  SGN d 902     -30.312  79.737  19.159  0.00  0.00    -0.349 OA
ATOM     58  O1S SGN d 902     -31.858  80.215  13.488  0.00  0.00    -0.296 OA
ATOM     59  O4S SGN d 902     -27.507  76.033  21.347  0.00  0.00    -0.572 OA
ATOM     60  O4  SGN d 902     -32.435  76.925  20.174  0.00  0.00    -0.348 OA
ATOM     61  O1  SGN d 902     -32.064  80.907  18.057  0.00  0.00    -0.348 OA
ATOM     62  H   SGN d 902     -30.185  80.642  17.342  0.00  0.00     0.131 H 
ATOM     63  H   SGN d 902     -32.041  79.512  20.282  0.00  0.00     0.090 H 
ATOM     64  H   SGN d 902     -32.586  79.921  16.117  0.00  0.00     0.140 HD
ATOM     65  H   SGN d 902     -30.661  77.088  19.155  0.00  0.00     0.091 H 
ATOM     66  H   SGN d 902     -30.414  78.234  16.951  0.00  0.00     0.076 H 
ATOM     67  H   SGN d 902     -30.433  81.413  15.299  0.00  0.00     0.231 HD
ATOM     68  H   SGN d 902     -30.201  79.578  21.851  0.00  0.00     0.080 H 
ATOM     69  H   SGN d 902     -30.904  77.987  21.921  0.00  0.00     0.080 H 
ATOM     70  H   SGN d 902     -33.187  76.272  17.915  0.00  0.00     0.210 HD
ATOM     71  H   SGN d 902     -30.941  77.793  13.695  0.00  0.00     0.231 HD
ATOM     72  H   SGN d 902     -33.136  78.537  18.215  0.00  0.00     0.089 H 
ATOM     73  H   SGN d 902     -32.514  79.555  13.214  0.00  0.00     0.231 HD
ATOM     74  O4S SGN d 904     -34.265  86.440  13.252  0.00  0.00    -0.572 OA
ATOM     75  O5S SGN d 904     -32.900  88.409  13.518  0.00  0.00    -0.572 OA
ATOM     76  C3  SGN d 904     -35.684  86.131  19.316  0.00  0.00     0.083 C 
ATOM     77  N   SGN d 904     -37.905  86.792  19.991  0.00  0.00    -0.210 NA
ATOM     78  O5  SGN d 904     -35.598  88.472  17.703  0.00  0.00    -0.350 OA
ATOM     79  O6S SGN d 904     -32.188  86.321  14.481  0.00  0.00    -0.572 OA
ATOM     80  O3S SGN d 904     -39.837  86.766  18.211  0.00  0.00    -0.296 OA
ATOM     81  O4  SGN d 904     -33.442  85.690  18.650  0.00  0.00    -0.348 OA
ATOM     82  S2  SGN d 904     -33.355  87.165  14.160  0.00  0.00     0.251 S 
ATOM     83  O1  SGN d 904     -36.105  88.925  19.959  0.00  0.00    -0.369 OA
ATOM     84  O3  SGN d 904     -36.020  84.768  19.454  0.00  0.00    -0.391 OA
ATOM     85  O2S SGN d 904     -40.476  86.471  20.523  0.00  0.00    -0.296 OA
ATOM     86  C5  SGN d 904     -34.373  87.793  17.999  0.00  0.00     0.091 C 
ATOM     87  O6  SGN d 904     -34.206  87.563  15.647  0.00  0.00    -0.254 OA
ATOM     88  O1S SGN d 904     -39.773  88.641  19.723  0.00  0.00    -0.296 OA
ATOM     89  C1  SGN d 904     -36.589  88.375  18.730  0.00  0.00     0.147 C 
ATOM     90  C4  SGN d 904     -34.651  86.305  18.213  0.00  0.00     0.095 C 
ATOM     91  C2  SGN d 904     -36.931  86.906  18.936  0.00  0.00     0.081 C 
ATOM     92  C6  SGN d 904     -33.466  87.967  16.797  0.00  0.00     0.067 C 
ATOM     93  S1  SGN d 904     -39.575  87.187  19.599  0.00  0.00     0.156 S 
ATOM     94  H   SGN d 904     -35.283  86.489  20.241  0.00  0.00     0.089 H 
ATOM     95  H   SGN d 904     -37.613  87.413  20.746  0.00  0.00     0.140 HD
ATOM     96  H   SGN d 904     -39.706  85.808  18.134  0.00  0.00     0.231 HD
ATOM     97  H   SGN d 904     -35.887  89.861  19.830  0.00  0.00     0.212 HD
ATOM     98  H   SGN d 904     -36.384  84.439  18.618  0.00  0.00     0.210 HD
ATOM     99  H   SGN d 904     -40.338  85.515  20.434  0.00  0.00     0.231 HD
ATOM    100  H   SGN d 904     -33.921  88.189  18.883  0.00  0.00     0.090 H 
ATOM    101  H   SGN d 904     -39.177  89.103  19.113  0.00  0.00     0.231 HD
ATOM    102  H   SGN d 904     -37.457  88.927  18.434  0.00  0.00     0.131 H 
ATOM    103  H   SGN d 904     -35.010  85.870  17.304  0.00  0.00     0.091 H 
ATOM    104  H   SGN d 904     -37.328  86.505  18.027  0.00  0.00     0.076 H 
ATOM    105  H   SGN d 904     -32.593  87.357  16.904  0.00  0.00     0.080 H 
ATOM    106  H   SGN d 904     -33.148  88.985  16.706  0.00  0.00     0.080 H 
ENDROOT
TORSDOF 33
ENDMDL
MODEL 30
REMARK VINA RESULT:      -7.2      4.364      8.871
REMARK  0 active torsions:
REMARK  status: ('A' for Active; 'I' for Inactive)
REMARK       I    between atoms: C3_1  and  O3_18 
REMARK       I    between atoms: O6_3  and  C6_41 
REMARK       I    between atoms: O6_3  and  S2_27 
REMARK       I    between atoms: C1_4  and  O1_67 
REMARK       I    between atoms: O2_6  and  C2_60 
REMARK       I    between atoms: O2_6  and  S_64 
REMARK       I    between atoms: C5_7  and  C6_41 
REMARK       I    between atoms: C6_9  and  C5_36 
REMARK       I    between atoms: N_10  and  C2_26 
REMARK       I    between atoms: N_10  and  S1_14 
REMARK       I    between atoms: O2_12  and  C2_39 
REMARK       I    between atoms: O2_12  and  S_34 
REMARK       I    between atoms: C3_13  and  O3_44 
REMARK       I    between atoms: S1_14  and  O1S_57 
REMARK       I    between atoms: S1_14  and  O2S_48 
REMARK       I    between atoms: S1_14  and  O3S_38 
REMARK       I    between atoms: C6_16  and  C5_68 
REMARK       I    between atoms: C4_17  and  O4_62 
REMARK       I    between atoms: N_21  and  C2_65 
REMARK       I    between atoms: N_21  and  S1_69 
REMARK       I    between atoms: C3_25  and  O3_30 
REMARK       I    between atoms: O3S_29  and  S1_69 
REMARK       I    between atoms: O4_31  and  C1_42 
REMARK       I    between atoms: O4_31  and  C4_63 
REMARK       I    between atoms: S2_35  and  O6_49 
REMARK       I    between atoms: O1_37  and  C1_61 
REMARK       I    between atoms: O2S_45  and  S1_69 
REMARK       I    between atoms: O3_46  and  C3_55 
REMARK       I    between atoms: C5_47  and  C6_66 
REMARK       I    between atoms: O6_49  and  C6_66 
REMARK       I    between atoms: O1S_52  and  S1_69 
REMARK       I    between atoms: C1_54  and  O4_62 
REMARK       I    between atoms: C4_59  and  O1_67 
ROOT
ATOM      1  C3  UAP d 901     -24.819  84.348  20.332  0.00  0.00     0.086 C 
ATOM      2  O1S UAP d 901     -22.850  87.395  17.416  0.00  0.00    -0.572 OA
ATOM      3  C6  UAP d 901     -24.379  80.738  19.884  0.00  0.00     0.233 C 
ATOM      4  O2  UAP d 901     -24.230  85.260  18.178  0.00  0.00    -0.244 OA
ATOM      5  O3  UAP d 901     -25.741  84.843  21.280  0.00  0.00    -0.389 OA
ATOM      6  O61 UAP d 901     -24.117  80.427  21.068  0.00  0.00    -0.642 OA
ATOM      7  O5  UAP d 901     -24.895  82.359  18.316  0.00  0.00    -0.311 OA
ATOM      8  O2S UAP d 901     -23.987  87.527  19.535  0.00  0.00    -0.572 OA
ATOM      9  S   UAP d 901     -24.071  87.020  18.153  0.00  0.00     0.252 S 
ATOM     10  C5  UAP d 901     -24.625  82.014  19.584  0.00  0.00     0.147 C 
ATOM     11  C2  UAP d 901     -25.295  84.662  18.913  0.00  0.00     0.135 C 
ATOM     12  O62 UAP d 901     -24.405  79.881  18.975  0.00  0.00    -0.642 OA
ATOM     13  O3S UAP d 901     -25.249  87.607  17.486  0.00  0.00    -0.572 OA
ATOM     14  C4  UAP d 901     -24.585  82.937  20.562  0.00  0.00    -0.034 C 
ATOM     15  C1  UAP d 901     -25.812  83.440  18.166  0.00  0.00     0.167 C 
ATOM     16  H   UAP d 901     -23.876  84.839  20.447  0.00  0.00     0.093 H 
ATOM     17  H   UAP d 901     -26.593  84.392  21.168  0.00  0.00     0.210 HD
ATOM     18  H   UAP d 901     -26.119  85.337  19.003  0.00  0.00     0.097 H 
ATOM     19  H   UAP d 901     -24.378  82.625  21.522  0.00  0.00     0.085 H 
ATOM     20  H   UAP d 901     -25.896  83.659  17.122  0.00  0.00     0.134 H 
ATOM     21  O1S IDS d 903     -37.456  80.856  13.959  0.00  0.00    -0.572 OA
ATOM     22  O2  IDS d 903     -35.459  81.051  15.684  0.00  0.00    -0.244 OA
ATOM     23  O5  IDS d 903     -34.088  82.177  18.799  0.00  0.00    -0.340 OA
ATOM     24  C6  IDS d 903     -32.161  83.384  19.457  0.00  0.00     0.206 C 
ATOM     25  O2S IDS d 903     -36.497  83.047  14.282  0.00  0.00    -0.572 OA
ATOM     26  C3  IDS d 903     -33.232  81.310  16.472  0.00  0.00     0.094 C 
ATOM     27  O3S IDS d 903     -35.274  81.360  13.068  0.00  0.00    -0.572 OA
ATOM     28  O3  IDS d 903     -32.753  81.137  15.156  0.00  0.00    -0.390 OA
ATOM     29  O61 IDS d 903     -31.277  84.241  19.273  0.00  0.00    -0.646 OA
ATOM     30  C1  IDS d 903     -35.157  81.996  17.858  0.00  0.00     0.161 C 
ATOM     31  C4  IDS d 903     -32.307  82.275  17.225  0.00  0.00     0.103 C 
ATOM     32  C2  IDS d 903     -34.612  81.922  16.425  0.00  0.00     0.134 C 
ATOM     33  S   IDS d 903     -36.207  81.605  14.187  0.00  0.00     0.252 S 
ATOM     34  C5  IDS d 903     -33.083  83.046  18.301  0.00  0.00     0.152 C 
ATOM     35  O62 IDS d 903     -32.328  82.797  20.550  0.00  0.00    -0.646 OA
ATOM     36  H   IDS d 903     -33.261  80.361  16.964  0.00  0.00     0.091 H 
ATOM     37  H   IDS d 903     -32.725  81.995  14.707  0.00  0.00     0.210 HD
ATOM     38  H   IDS d 903     -35.668  81.088  18.103  0.00  0.00     0.133 H 
ATOM     39  H   IDS d 903     -31.895  82.966  16.520  0.00  0.00     0.092 H 
ATOM     40  H   IDS d 903     -34.575  82.893  15.980  0.00  0.00     0.097 H 
ATOM     41  H   IDS d 903     -33.490  83.945  17.886  0.00  0.00     0.104 H 
ATOM     42  O6  SGN d 902     -27.466  83.081  15.061  0.00  0.00    -0.254 OA
ATOM     43  C1  SGN d 902     -30.296  80.951  17.010  0.00  0.00     0.150 C 
ATOM     44  C5  SGN d 902     -28.859  82.899  17.000  0.00  0.00     0.091 C 
ATOM     45  N   SGN d 902     -29.976  79.212  18.678  0.00  0.00    -0.210 NA
ATOM     46  S1  SGN d 902     -30.528  77.686  17.974  0.00  0.00     0.156 S 
ATOM     47  C4  SGN d 902     -27.812  82.162  17.836  0.00  0.00     0.095 C 
ATOM     48  O5S SGN d 902     -26.597  84.329  12.899  0.00  0.00    -0.572 OA
ATOM     49  C2  SGN d 902     -29.282  80.174  17.847  0.00  0.00     0.081 C 
ATOM     50  S2  SGN d 902     -26.111  83.793  14.185  0.00  0.00     0.251 S 
ATOM     51  O3S SGN d 902     -31.221  77.953  16.700  0.00  0.00    -0.296 OA
ATOM     52  C6  SGN d 902     -28.178  83.852  16.027  0.00  0.00     0.067 C 
ATOM     53  O3  SGN d 902     -27.549  80.436  19.488  0.00  0.00    -0.391 OA
ATOM     54  O2S SGN d 902     -29.366  76.814  17.725  0.00  0.00    -0.296 OA
ATOM     55  O6S SGN d 902     -25.526  84.883  14.990  0.00  0.00    -0.572 OA
ATOM     56  C3  SGN d 902     -28.504  81.142  18.729  0.00  0.00     0.083 C 
ATOM     57  O5  SGN d 902     -29.608  81.941  16.235  0.00  0.00    -0.349 OA
ATOM     58  O1S SGN d 902     -31.453  77.021  18.910  0.00  0.00    -0.296 OA
ATOM     59  O4S SGN d 902     -25.087  82.760  13.938  0.00  0.00    -0.572 OA
ATOM     60  O4  SGN d 902     -27.107  83.096  18.656  0.00  0.00    -0.348 OA
ATOM     61  O1  SGN d 902     -31.279  81.526  17.874  0.00  0.00    -0.348 OA
ATOM     62  H   SGN d 902     -30.804  80.300  16.330  0.00  0.00     0.131 H 
ATOM     63  H   SGN d 902     -29.502  83.448  17.656  0.00  0.00     0.090 H 
ATOM     64  H   SGN d 902     -30.801  79.682  19.050  0.00  0.00     0.140 HD
ATOM     65  H   SGN d 902     -27.124  81.668  17.183  0.00  0.00     0.091 H 
ATOM     66  H   SGN d 902     -28.605  79.659  17.198  0.00  0.00     0.076 H 
ATOM     67  H   SGN d 902     -31.987  78.526  16.862  0.00  0.00     0.231 HD
ATOM     68  H   SGN d 902     -28.915  84.454  15.536  0.00  0.00     0.080 H 
ATOM     69  H   SGN d 902     -27.503  84.493  16.555  0.00  0.00     0.080 H 
ATOM     70  H   SGN d 902     -27.057  81.057  20.047  0.00  0.00     0.210 HD
ATOM     71  H   SGN d 902     -28.908  76.637  18.562  0.00  0.00     0.231 HD
ATOM     72  H   SGN d 902     -29.170  81.641  19.401  0.00  0.00     0.089 H 
ATOM     73  H   SGN d 902     -30.995  76.846  19.748  0.00  0.00     0.231 HD
ATOM     74  O4S SGN d 904     -37.948  78.302  19.788  0.00  0.00    -0.572 OA
ATOM     75  O5S SGN d 904     -39.534  78.457  17.978  0.00  0.00    -0.572 OA
ATOM     76  C3  SGN d 904     -36.752  84.421  19.779  0.00  0.00     0.083 C 
ATOM     77  N   SGN d 904     -37.680  85.756  21.563  0.00  0.00    -0.210 NA
ATOM     78  O5  SGN d 904     -39.301  83.183  19.530  0.00  0.00    -0.350 OA
ATOM     79  O6S SGN d 904     -37.203  78.895  17.567  0.00  0.00    -0.572 OA
ATOM     80  O3S SGN d 904     -38.365  84.579  23.810  0.00  0.00    -0.296 OA
ATOM     81  O4  SGN d 904     -36.031  83.121  17.922  0.00  0.00    -0.348 OA
ATOM     82  S2  SGN d 904     -38.299  79.020  18.548  0.00  0.00     0.251 S 
ATOM     83  O1  SGN d 904     -39.398  85.532  19.375  0.00  0.00    -0.369 OA
ATOM     84  O3  SGN d 904     -35.478  84.456  20.381  0.00  0.00    -0.391 OA
ATOM     85  O2S SGN d 904     -37.757  86.914  23.940  0.00  0.00    -0.296 OA
ATOM     86  C5  SGN d 904     -38.357  83.040  18.463  0.00  0.00     0.091 C 
ATOM     87  O6  SGN d 904     -38.557  80.722  18.909  0.00  0.00    -0.254 OA
ATOM     88  O1S SGN d 904     -39.867  86.260  22.958  0.00  0.00    -0.296 OA
ATOM     89  C1  SGN d 904     -39.197  84.416  20.248  0.00  0.00     0.147 C 
ATOM     90  C4  SGN d 904     -36.936  83.115  19.022  0.00  0.00     0.095 C 
ATOM     91  C2  SGN d 904     -37.808  84.503  20.864  0.00  0.00     0.081 C 
ATOM     92  C6  SGN d 904     -38.584  81.673  17.847  0.00  0.00     0.067 C 
ATOM     93  S1  SGN d 904     -38.453  85.888  23.139  0.00  0.00     0.156 S 
ATOM     94  H   SGN d 904     -36.843  85.244  19.100  0.00  0.00     0.089 H 
ATOM     95  H   SGN d 904     -38.077  86.482  20.966  0.00  0.00     0.140 HD
ATOM     96  H   SGN d 904     -37.433  84.338  23.927  0.00  0.00     0.231 HD
ATOM     97  H   SGN d 904     -40.283  85.479  18.981  0.00  0.00     0.212 HD
ATOM     98  H   SGN d 904     -35.391  83.713  20.997  0.00  0.00     0.210 HD
ATOM     99  H   SGN d 904     -36.827  86.661  24.053  0.00  0.00     0.231 HD
ATOM    100  H   SGN d 904     -38.482  83.815  17.737  0.00  0.00     0.090 H 
ATOM    101  H   SGN d 904     -40.316  85.580  22.431  0.00  0.00     0.231 HD
ATOM    102  H   SGN d 904     -39.950  84.445  21.007  0.00  0.00     0.131 H 
ATOM    103  H   SGN d 904     -36.760  82.286  19.674  0.00  0.00     0.091 H 
ATOM    104  H   SGN d 904     -37.673  83.689  21.545  0.00  0.00     0.076 H 
ATOM    105  H   SGN d 904     -37.810  81.456  17.141  0.00  0.00     0.080 H 
ATOM    106  H   SGN d 904     -39.521  81.640  17.331  0.00  0.00     0.080 H 
ENDROOT
TORSDOF 33
ENDMDL
MODEL 31
REMARK VINA RESULT:      -7.2      4.171      8.581
REMARK  0 active torsions:
REMARK  status: ('A' for Active; 'I' for Inactive)
REMARK       I    between atoms: C3_1  and  O3_18 
REMARK       I    between atoms: O6_3  and  C6_41 
REMARK       I    between atoms: O6_3  and  S2_27 
REMARK       I    between atoms: C1_4  and  O1_67 
REMARK       I    between atoms: O2_6  and  C2_60 
REMARK       I    between atoms: O2_6  and  S_64 
REMARK       I    between atoms: C5_7  and  C6_41 
REMARK       I    between atoms: C6_9  and  C5_36 
REMARK       I    between atoms: N_10  and  C2_26 
REMARK       I    between atoms: N_10  and  S1_14 
REMARK       I    between atoms: O2_12  and  C2_39 
REMARK       I    between atoms: O2_12  and  S_34 
REMARK       I    between atoms: C3_13  and  O3_44 
REMARK       I    between atoms: S1_14  and  O1S_57 
REMARK       I    between atoms: S1_14  and  O2S_48 
REMARK       I    between atoms: S1_14  and  O3S_38 
REMARK       I    between atoms: C6_16  and  C5_68 
REMARK       I    between atoms: C4_17  and  O4_62 
REMARK       I    between atoms: N_21  and  C2_65 
REMARK       I    between atoms: N_21  and  S1_69 
REMARK       I    between atoms: C3_25  and  O3_30 
REMARK       I    between atoms: O3S_29  and  S1_69 
REMARK       I    between atoms: O4_31  and  C1_42 
REMARK       I    between atoms: O4_31  and  C4_63 
REMARK       I    between atoms: S2_35  and  O6_49 
REMARK       I    between atoms: O1_37  and  C1_61 
REMARK       I    between atoms: O2S_45  and  S1_69 
REMARK       I    between atoms: O3_46  and  C3_55 
REMARK       I    between atoms: C5_47  and  C6_66 
REMARK       I    between atoms: O6_49  and  C6_66 
REMARK       I    between atoms: O1S_52  and  S1_69 
REMARK       I    between atoms: C1_54  and  O4_62 
REMARK       I    between atoms: C4_59  and  O1_67 
ROOT
ATOM      1  C3  UAP d 901     -31.931  75.774  21.890  0.00  0.00     0.086 C 
ATOM      2  O1S UAP d 901     -34.501  73.203  18.984  0.00  0.00    -0.572 OA
ATOM      3  C6  UAP d 901     -33.463  78.340  24.011  0.00  0.00     0.233 C 
ATOM      4  O2  UAP d 901     -33.591  75.388  20.183  0.00  0.00    -0.244 OA
ATOM      5  O3  UAP d 901     -30.526  75.669  21.798  0.00  0.00    -0.389 OA
ATOM      6  O61 UAP d 901     -32.895  78.061  25.091  0.00  0.00    -0.642 OA
ATOM      7  O5  UAP d 901     -33.791  77.907  21.762  0.00  0.00    -0.311 OA
ATOM      8  O2S UAP d 901     -32.230  73.146  19.784  0.00  0.00    -0.572 OA
ATOM      9  S   UAP d 901     -33.264  73.988  19.155  0.00  0.00     0.252 S 
ATOM     10  C5  UAP d 901     -33.179  77.624  22.922  0.00  0.00     0.147 C 
ATOM     11  C2  UAP d 901     -32.518  76.247  20.560  0.00  0.00     0.135 C 
ATOM     12  O62 UAP d 901     -34.297  79.267  23.932  0.00  0.00    -0.642 OA
ATOM     13  O3S UAP d 901     -32.787  74.450  17.838  0.00  0.00    -0.572 OA
ATOM     14  C4  UAP d 901     -32.290  76.619  23.011  0.00  0.00    -0.034 C 
ATOM     15  C1  UAP d 901     -33.003  77.690  20.594  0.00  0.00     0.167 C 
ATOM     16  H   UAP d 901     -32.358  74.812  22.081  0.00  0.00     0.093 H 
ATOM     17  H   UAP d 901     -30.148  76.545  21.625  0.00  0.00     0.210 HD
ATOM     18  H   UAP d 901     -31.729  76.207  19.839  0.00  0.00     0.097 H 
ATOM     19  H   UAP d 901     -31.841  76.441  23.922  0.00  0.00     0.085 H 
ATOM     20  H   UAP d 901     -33.617  77.889  19.740  0.00  0.00     0.134 H 
ATOM     21  O1S IDS d 903     -28.771  87.802  14.286  0.00  0.00    -0.572 OA
ATOM     22  O2  IDS d 903     -28.862  85.953  16.176  0.00  0.00    -0.244 OA
ATOM     23  O5  IDS d 903     -27.329  83.364  18.126  0.00  0.00    -0.340 OA
ATOM     24  C6  IDS d 903     -27.856  81.121  18.665  0.00  0.00     0.206 C 
ATOM     25  O2S IDS d 903     -28.629  85.501  13.574  0.00  0.00    -0.572 OA
ATOM     26  C3  IDS d 903     -29.744  84.199  17.517  0.00  0.00     0.094 C 
ATOM     27  O3S IDS d 903     -30.727  86.396  14.359  0.00  0.00    -0.572 OA
ATOM     28  O3  IDS d 903     -31.025  84.438  16.975  0.00  0.00    -0.390 OA
ATOM     29  O61 IDS d 903     -28.358  80.011  18.409  0.00  0.00    -0.646 OA
ATOM     30  C1  IDS d 903     -27.311  84.417  17.149  0.00  0.00     0.161 C 
ATOM     31  C4  IDS d 903     -29.594  82.704  17.824  0.00  0.00     0.103 C 
ATOM     32  C2  IDS d 903     -28.693  84.578  16.500  0.00  0.00     0.134 C 
ATOM     33  S   IDS d 903     -29.259  86.433  14.527  0.00  0.00     0.252 S 
ATOM     34  C5  IDS d 903     -28.127  82.267  17.710  0.00  0.00     0.152 C 
ATOM     35  O62 IDS d 903     -27.134  81.331  19.666  0.00  0.00    -0.646 OA
ATOM     36  H   IDS d 903     -29.625  84.778  18.408  0.00  0.00     0.091 H 
ATOM     37  H   IDS d 903     -31.136  83.915  16.166  0.00  0.00     0.210 HD
ATOM     38  H   IDS d 903     -27.030  85.325  17.641  0.00  0.00     0.133 H 
ATOM     39  H   IDS d 903     -30.184  82.154  17.121  0.00  0.00     0.092 H 
ATOM     40  H   IDS d 903     -28.779  83.964  15.628  0.00  0.00     0.097 H 
ATOM     41  H   IDS d 903     -27.912  81.964  16.707  0.00  0.00     0.104 H 
ATOM     42  O6  SGN d 902     -34.143  79.872  18.055  0.00  0.00    -0.254 OA
ATOM     43  C1  SGN d 902     -31.433  82.560  19.387  0.00  0.00     0.150 C 
ATOM     44  C5  SGN d 902     -31.906  80.255  18.818  0.00  0.00     0.091 C 
ATOM     45  N   SGN d 902     -30.933  83.168  21.687  0.00  0.00    -0.210 NA
ATOM     46  S1  SGN d 902     -31.443  84.846  21.920  0.00  0.00     0.156 S 
ATOM     47  C4  SGN d 902     -32.217  79.932  20.280  0.00  0.00     0.095 C 
ATOM     48  O5S SGN d 902     -35.911  79.072  16.260  0.00  0.00    -0.572 OA
ATOM     49  C2  SGN d 902     -31.731  82.286  20.859  0.00  0.00     0.081 C 
ATOM     50  S2  SGN d 902     -35.480  78.797  17.644  0.00  0.00     0.251 S 
ATOM     51  O3S SGN d 902     -31.795  85.440  20.618  0.00  0.00    -0.296 OA
ATOM     52  C6  SGN d 902     -32.796  79.431  17.898  0.00  0.00     0.067 C 
ATOM     53  O3  SGN d 902     -31.687  80.569  22.537  0.00  0.00    -0.391 OA
ATOM     54  O2S SGN d 902     -32.620  84.879  22.807  0.00  0.00    -0.296 OA
ATOM     55  O6S SGN d 902     -35.034  77.395  17.759  0.00  0.00    -0.572 OA
ATOM     56  C3  SGN d 902     -31.393  80.837  21.185  0.00  0.00     0.083 C 
ATOM     57  O5  SGN d 902     -32.181  81.644  18.576  0.00  0.00    -0.349 OA
ATOM     58  O1S SGN d 902     -30.341  85.611  22.532  0.00  0.00    -0.296 OA
ATOM     59  O4S SGN d 902     -36.604  79.034  18.570  0.00  0.00    -0.572 OA
ATOM     60  O4  SGN d 902     -31.881  78.570  20.554  0.00  0.00    -0.348 OA
ATOM     61  O1  SGN d 902     -30.025  82.457  19.163  0.00  0.00    -0.348 OA
ATOM     62  H   SGN d 902     -31.732  83.552  19.117  0.00  0.00     0.131 H 
ATOM     63  H   SGN d 902     -30.877  80.031  18.625  0.00  0.00     0.090 H 
ATOM     64  H   SGN d 902     -30.000  83.196  21.276  0.00  0.00     0.140 HD
ATOM     65  H   SGN d 902     -33.260  80.087  20.461  0.00  0.00     0.091 H 
ATOM     66  H   SGN d 902     -32.769  82.462  21.051  0.00  0.00     0.076 H 
ATOM     67  H   SGN d 902     -31.021  85.419  20.033  0.00  0.00     0.231 HD
ATOM     68  H   SGN d 902     -32.488  79.566  16.881  0.00  0.00     0.080 H 
ATOM     69  H   SGN d 902     -32.718  78.393  18.147  0.00  0.00     0.080 H 
ATOM     70  H   SGN d 902     -31.469  79.645  22.737  0.00  0.00     0.210 HD
ATOM     71  H   SGN d 902     -32.391  84.488  23.665  0.00  0.00     0.231 HD
ATOM     72  H   SGN d 902     -30.350  80.660  21.023  0.00  0.00     0.089 H 
ATOM     73  H   SGN d 902     -30.111  85.218  23.389  0.00  0.00     0.231 HD
ATOM     74  O4S SGN d 904     -25.041  88.255  19.446  0.00  0.00    -0.572 OA
ATOM     75  O5S SGN d 904     -25.195  89.624  17.468  0.00  0.00    -0.572 OA
ATOM     76  C3  SGN d 904     -24.283  82.981  16.209  0.00  0.00     0.083 C 
ATOM     77  N   SGN d 904     -22.078  82.002  16.143  0.00  0.00    -0.210 NA
ATOM     78  O5  SGN d 904     -23.062  85.495  15.681  0.00  0.00    -0.350 OA
ATOM     79  O6S SGN d 904     -26.934  88.035  17.961  0.00  0.00    -0.572 OA
ATOM     80  O3S SGN d 904     -20.358  82.615  18.032  0.00  0.00    -0.296 OA
ATOM     81  O4  SGN d 904     -26.393  84.079  16.113  0.00  0.00    -0.348 OA
ATOM     82  S2  SGN d 904     -25.484  88.299  18.039  0.00  0.00     0.251 S 
ATOM     83  O1  SGN d 904     -22.503  83.847  14.092  0.00  0.00    -0.369 OA
ATOM     84  O3  SGN d 904     -24.712  82.016  17.144  0.00  0.00    -0.391 OA
ATOM     85  O2S SGN d 904     -20.077  80.472  16.950  0.00  0.00    -0.296 OA
ATOM     86  C5  SGN d 904     -24.474  85.360  15.488  0.00  0.00     0.091 C 
ATOM     87  O6  SGN d 904     -24.624  87.074  17.116  0.00  0.00    -0.254 OA
ATOM     88  O1S SGN d 904     -19.510  82.509  15.778  0.00  0.00    -0.296 OA
ATOM     89  C1  SGN d 904     -22.317  84.298  15.437  0.00  0.00     0.147 C 
ATOM     90  C4  SGN d 904     -25.021  84.291  16.435  0.00  0.00     0.095 C 
ATOM     91  C2  SGN d 904     -22.799  83.223  16.401  0.00  0.00     0.081 C 
ATOM     92  C6  SGN d 904     -25.100  86.699  15.825  0.00  0.00     0.067 C 
ATOM     93  S1  SGN d 904     -20.430  81.891  16.750  0.00  0.00     0.156 S 
ATOM     94  H   SGN d 904     -24.484  82.625  15.219  0.00  0.00     0.089 H 
ATOM     95  H   SGN d 904     -22.041  81.875  15.132  0.00  0.00     0.140 HD
ATOM     96  H   SGN d 904     -20.964  82.205  18.669  0.00  0.00     0.231 HD
ATOM     97  H   SGN d 904     -22.196  84.530  13.476  0.00  0.00     0.212 HD
ATOM     98  H   SGN d 904     -24.532  82.335  18.041  0.00  0.00     0.210 HD
ATOM     99  H   SGN d 904     -20.687  80.074  17.591  0.00  0.00     0.231 HD
ATOM    100  H   SGN d 904     -24.697  85.073  14.482  0.00  0.00     0.090 H 
ATOM    101  H   SGN d 904     -19.750  83.441  15.653  0.00  0.00     0.231 HD
ATOM    102  H   SGN d 904     -21.276  84.497  15.583  0.00  0.00     0.131 H 
ATOM    103  H   SGN d 904     -24.898  84.610  17.449  0.00  0.00     0.091 H 
ATOM    104  H   SGN d 904     -22.625  83.546  17.405  0.00  0.00     0.076 H 
ATOM    105  H   SGN d 904     -26.167  86.613  15.839  0.00  0.00     0.080 H 
ATOM    106  H   SGN d 904     -24.838  87.435  15.095  0.00  0.00     0.080 H 
ENDROOT
TORSDOF 33
ENDMDL
MODEL 32
REMARK VINA RESULT:      -7.2      4.154     10.135
REMARK  0 active torsions:
REMARK  status: ('A' for Active; 'I' for Inactive)
REMARK       I    between atoms: C3_1  and  O3_18 
REMARK       I    between atoms: O6_3  and  C6_41 
REMARK       I    between atoms: O6_3  and  S2_27 
REMARK       I    between atoms: C1_4  and  O1_67 
REMARK       I    between atoms: O2_6  and  C2_60 
REMARK       I    between atoms: O2_6  and  S_64 
REMARK       I    between atoms: C5_7  and  C6_41 
REMARK       I    between atoms: C6_9  and  C5_36 
REMARK       I    between atoms: N_10  and  C2_26 
REMARK       I    between atoms: N_10  and  S1_14 
REMARK       I    between atoms: O2_12  and  C2_39 
REMARK       I    between atoms: O2_12  and  S_34 
REMARK       I    between atoms: C3_13  and  O3_44 
REMARK       I    between atoms: S1_14  and  O1S_57 
REMARK       I    between atoms: S1_14  and  O2S_48 
REMARK       I    between atoms: S1_14  and  O3S_38 
REMARK       I    between atoms: C6_16  and  C5_68 
REMARK       I    between atoms: C4_17  and  O4_62 
REMARK       I    between atoms: N_21  and  C2_65 
REMARK       I    between atoms: N_21  and  S1_69 
REMARK       I    between atoms: C3_25  and  O3_30 
REMARK       I    between atoms: O3S_29  and  S1_69 
REMARK       I    between atoms: O4_31  and  C1_42 
REMARK       I    between atoms: O4_31  and  C4_63 
REMARK       I    between atoms: S2_35  and  O6_49 
REMARK       I    between atoms: O1_37  and  C1_61 
REMARK       I    between atoms: O2S_45  and  S1_69 
REMARK       I    between atoms: O3_46  and  C3_55 
REMARK       I    between atoms: C5_47  and  C6_66 
REMARK       I    between atoms: O6_49  and  C6_66 
REMARK       I    between atoms: O1S_52  and  S1_69 
REMARK       I    between atoms: C1_54  and  O4_62 
REMARK       I    between atoms: C4_59  and  O1_67 
ROOT
ATOM      1  C3  UAP d 901     -36.331  84.625  17.133  0.00  0.00     0.086 C 
ATOM      2  O1S UAP d 901     -40.305  83.562  19.308  0.00  0.00    -0.572 OA
ATOM      3  C6  UAP d 901     -35.339  82.911  14.050  0.00  0.00     0.233 C 
ATOM      4  O2  UAP d 901     -37.984  83.153  18.090  0.00  0.00    -0.244 OA
ATOM      5  O3  UAP d 901     -35.429  85.490  17.790  0.00  0.00    -0.389 OA
ATOM      6  O61 UAP d 901     -34.998  83.909  13.375  0.00  0.00    -0.642 OA
ATOM      7  O5  UAP d 901     -36.159  82.025  16.023  0.00  0.00    -0.311 OA
ATOM      8  O2S UAP d 901     -38.649  85.300  19.499  0.00  0.00    -0.572 OA
ATOM      9  S   UAP d 901     -38.865  83.842  19.458  0.00  0.00     0.252 S 
ATOM     10  C5  UAP d 901     -35.780  83.086  15.296  0.00  0.00     0.147 C 
ATOM     11  C2  UAP d 901     -36.580  83.375  17.977  0.00  0.00     0.135 C 
ATOM     12  O62 UAP d 901     -35.286  81.755  13.578  0.00  0.00    -0.642 OA
ATOM     13  O3S UAP d 901     -38.374  83.238  20.711  0.00  0.00    -0.572 OA
ATOM     14  C4  UAP d 901     -35.848  84.332  15.799  0.00  0.00    -0.034 C 
ATOM     15  C1  UAP d 901     -35.906  82.128  17.422  0.00  0.00     0.167 C 
ATOM     16  H   UAP d 901     -37.281  85.104  17.018  0.00  0.00     0.093 H 
ATOM     17  H   UAP d 901     -34.572  85.048  17.889  0.00  0.00     0.210 HD
ATOM     18  H   UAP d 901     -36.146  83.556  18.937  0.00  0.00     0.097 H 
ATOM     19  H   UAP d 901     -35.542  85.118  15.204  0.00  0.00     0.085 H 
ATOM     20  H   UAP d 901     -36.306  81.255  17.895  0.00  0.00     0.134 H 
ATOM     21  O1S IDS d 903     -26.652  75.058  22.355  0.00  0.00    -0.572 OA
ATOM     22  O2  IDS d 903     -27.771  77.078  21.065  0.00  0.00    -0.244 OA
ATOM     23  O5  IDS d 903     -28.260  80.590  20.530  0.00  0.00    -0.340 OA
ATOM     24  C6  IDS d 903     -30.134  82.026  20.363  0.00  0.00     0.206 C 
ATOM     25  O2S IDS d 903     -28.254  76.384  23.577  0.00  0.00    -0.572 OA
ATOM     26  C3  IDS d 903     -29.448  78.325  19.932  0.00  0.00     0.094 C 
ATOM     27  O3S IDS d 903     -29.001  74.877  21.849  0.00  0.00    -0.572 OA
ATOM     28  O3  IDS d 903     -30.250  77.166  19.856  0.00  0.00    -0.390 OA
ATOM     29  O61 IDS d 903     -31.296  82.366  20.651  0.00  0.00    -0.646 OA
ATOM     30  C1  IDS d 903     -27.634  79.462  21.163  0.00  0.00     0.161 C 
ATOM     31  C4  IDS d 903     -30.352  79.558  20.064  0.00  0.00     0.103 C 
ATOM     32  C2  IDS d 903     -28.575  78.249  21.162  0.00  0.00     0.134 C 
ATOM     33  S   IDS d 903     -27.923  75.798  22.266  0.00  0.00     0.252 S 
ATOM     34  C5  IDS d 903     -29.642  80.674  20.841  0.00  0.00     0.152 C 
ATOM     35  O62 IDS d 903     -29.352  82.752  19.707  0.00  0.00    -0.646 OA
ATOM     36  H   IDS d 903     -28.846  78.395  19.051  0.00  0.00     0.091 H 
ATOM     37  H   IDS d 903     -30.797  77.099  20.654  0.00  0.00     0.210 HD
ATOM     38  H   IDS d 903     -26.739  79.232  20.625  0.00  0.00     0.133 H 
ATOM     39  H   IDS d 903     -31.240  79.270  20.585  0.00  0.00     0.092 H 
ATOM     40  H   IDS d 903     -29.176  78.231  22.046  0.00  0.00     0.097 H 
ATOM     41  H   IDS d 903     -29.831  80.568  21.889  0.00  0.00     0.104 H 
ATOM     42  O6  SGN d 902     -35.500  78.867  18.729  0.00  0.00    -0.254 OA
ATOM     43  C1  SGN d 902     -31.545  79.245  17.984  0.00  0.00     0.150 C 
ATOM     44  C5  SGN d 902     -33.564  80.271  18.839  0.00  0.00     0.091 C 
ATOM     45  N   SGN d 902     -30.476  80.139  15.992  0.00  0.00    -0.210 NA
ATOM     46  S1  SGN d 902     -29.629  78.805  15.196  0.00  0.00     0.156 S 
ATOM     47  C4  SGN d 902     -33.823  80.945  17.491  0.00  0.00     0.095 C 
ATOM     48  O5S SGN d 902     -37.531  77.572  19.820  0.00  0.00    -0.572 OA
ATOM     49  C2  SGN d 902     -31.759  79.897  16.620  0.00  0.00     0.081 C 
ATOM     50  S2  SGN d 902     -37.245  78.619  18.820  0.00  0.00     0.251 S 
ATOM     51  O3S SGN d 902     -29.625  77.625  16.079  0.00  0.00    -0.296 OA
ATOM     52  C6  SGN d 902     -34.884  79.897  19.500  0.00  0.00     0.067 C 
ATOM     53  O3  SGN d 902     -32.718  81.817  15.542  0.00  0.00    -0.391 OA
ATOM     54  O2S SGN d 902     -30.319  78.471  13.936  0.00  0.00    -0.296 OA
ATOM     55  O6S SGN d 902     -37.899  79.880  19.218  0.00  0.00    -0.572 OA
ATOM     56  C3  SGN d 902     -32.495  81.219  16.799  0.00  0.00     0.083 C 
ATOM     57  O5  SGN d 902     -32.815  79.065  18.625  0.00  0.00    -0.349 OA
ATOM     58  O1S SGN d 902     -28.241  79.211  14.906  0.00  0.00    -0.296 OA
ATOM     59  O4S SGN d 902     -37.750  78.196  17.500  0.00  0.00    -0.572 OA
ATOM     60  O4  SGN d 902     -34.506  82.183  17.694  0.00  0.00    -0.348 OA
ATOM     61  O1  SGN d 902     -30.658  80.054  18.760  0.00  0.00    -0.348 OA
ATOM     62  H   SGN d 902     -31.094  78.281  17.877  0.00  0.00     0.131 H 
ATOM     63  H   SGN d 902     -33.023  80.949  19.466  0.00  0.00     0.090 H 
ATOM     64  H   SGN d 902     -29.853  80.494  16.718  0.00  0.00     0.140 HD
ATOM     65  H   SGN d 902     -34.424  80.299  16.884  0.00  0.00     0.091 H 
ATOM     66  H   SGN d 902     -32.340  79.246  16.001  0.00  0.00     0.076 H 
ATOM     67  H   SGN d 902     -29.171  77.843  16.909  0.00  0.00     0.231 HD
ATOM     68  H   SGN d 902     -34.702  79.544  20.495  0.00  0.00     0.080 H 
ATOM     69  H   SGN d 902     -35.524  80.752  19.550  0.00  0.00     0.080 H 
ATOM     70  H   SGN d 902     -33.187  82.657  15.663  0.00  0.00     0.210 HD
ATOM     71  H   SGN d 902     -30.323  79.246  13.353  0.00  0.00     0.231 HD
ATOM     72  H   SGN d 902     -31.908  81.887  17.393  0.00  0.00     0.089 H 
ATOM     73  H   SGN d 902     -28.246  79.988  14.324  0.00  0.00     0.231 HD
ATOM     74  O4S SGN d 904     -23.060  79.226  19.119  0.00  0.00    -0.572 OA
ATOM     75  O5S SGN d 904     -22.460  77.345  20.503  0.00  0.00    -0.572 OA
ATOM     76  C3  SGN d 904     -26.634  81.820  23.521  0.00  0.00     0.083 C 
ATOM     77  N   SGN d 904     -25.779  83.762  24.670  0.00  0.00    -0.210 NA
ATOM     78  O5  SGN d 904     -24.082  80.617  23.887  0.00  0.00    -0.350 OA
ATOM     79  O6S SGN d 904     -24.732  77.600  19.750  0.00  0.00    -0.572 OA
ATOM     80  O3S SGN d 904     -23.902  85.197  23.522  0.00  0.00    -0.296 OA
ATOM     81  O4  SGN d 904     -27.358  79.784  22.524  0.00  0.00    -0.348 OA
ATOM     82  S2  SGN d 904     -23.519  78.317  20.188  0.00  0.00     0.251 S 
ATOM     83  O1  SGN d 904     -25.046  81.367  25.902  0.00  0.00    -0.369 OA
ATOM     84  O3  SGN d 904     -27.491  82.625  22.743  0.00  0.00    -0.391 OA
ATOM     85  O2S SGN d 904     -25.343  86.337  25.091  0.00  0.00    -0.296 OA
ATOM     86  C5  SGN d 904     -25.193  79.785  23.536  0.00  0.00     0.091 C 
ATOM     87  O6  SGN d 904     -23.890  79.251  21.631  0.00  0.00    -0.254 OA
ATOM     88  O1S SGN d 904     -23.667  84.786  25.885  0.00  0.00    -0.296 OA
ATOM     89  C1  SGN d 904     -24.428  81.761  24.674  0.00  0.00     0.147 C 
ATOM     90  C4  SGN d 904     -26.205  80.596  22.726  0.00  0.00     0.095 C 
ATOM     91  C2  SGN d 904     -25.397  82.622  23.876  0.00  0.00     0.081 C 
ATOM     92  C6  SGN d 904     -24.651  78.657  22.680  0.00  0.00     0.067 C 
ATOM     93  S1  SGN d 904     -24.622  85.081  24.802  0.00  0.00     0.156 S 
ATOM     94  H   SGN d 904     -27.150  81.508  24.405  0.00  0.00     0.089 H 
ATOM     95  H   SGN d 904     -25.970  83.427  25.615  0.00  0.00     0.140 HD
ATOM     96  H   SGN d 904     -24.533  85.392  22.812  0.00  0.00     0.231 HD
ATOM     97  H   SGN d 904     -24.430  80.819  26.412  0.00  0.00     0.212 HD
ATOM     98  H   SGN d 904     -27.028  82.910  21.941  0.00  0.00     0.210 HD
ATOM     99  H   SGN d 904     -25.969  86.523  24.373  0.00  0.00     0.231 HD
ATOM    100  H   SGN d 904     -25.678  79.406  24.411  0.00  0.00     0.090 H 
ATOM    101  H   SGN d 904     -23.199  83.960  25.687  0.00  0.00     0.231 HD
ATOM    102  H   SGN d 904     -23.539  82.309  24.906  0.00  0.00     0.131 H 
ATOM    103  H   SGN d 904     -25.766  80.898  21.798  0.00  0.00     0.091 H 
ATOM    104  H   SGN d 904     -24.921  82.947  22.974  0.00  0.00     0.076 H 
ATOM    105  H   SGN d 904     -25.459  78.088  22.269  0.00  0.00     0.080 H 
ATOM    106  H   SGN d 904     -24.045  77.996  23.263  0.00  0.00     0.080 H 
ENDROOT
TORSDOF 33
ENDMDL
MODEL 33
REMARK VINA RESULT:      -7.2      4.493     10.193
REMARK  0 active torsions:
REMARK  status: ('A' for Active; 'I' for Inactive)
REMARK       I    between atoms: C3_1  and  O3_18 
REMARK       I    between atoms: O6_3  and  C6_41 
REMARK       I    between atoms: O6_3  and  S2_27 
REMARK       I    between atoms: C1_4  and  O1_67 
REMARK       I    between atoms: O2_6  and  C2_60 
REMARK       I    between atoms: O2_6  and  S_64 
REMARK       I    between atoms: C5_7  and  C6_41 
REMARK       I    between atoms: C6_9  and  C5_36 
REMARK       I    between atoms: N_10  and  C2_26 
REMARK       I    between atoms: N_10  and  S1_14 
REMARK       I    between atoms: O2_12  and  C2_39 
REMARK       I    between atoms: O2_12  and  S_34 
REMARK       I    between atoms: C3_13  and  O3_44 
REMARK       I    between atoms: S1_14  and  O1S_57 
REMARK       I    between atoms: S1_14  and  O2S_48 
REMARK       I    between atoms: S1_14  and  O3S_38 
REMARK       I    between atoms: C6_16  and  C5_68 
REMARK       I    between atoms: C4_17  and  O4_62 
REMARK       I    between atoms: N_21  and  C2_65 
REMARK       I    between atoms: N_21  and  S1_69 
REMARK       I    between atoms: C3_25  and  O3_30 
REMARK       I    between atoms: O3S_29  and  S1_69 
REMARK       I    between atoms: O4_31  and  C1_42 
REMARK       I    between atoms: O4_31  and  C4_63 
REMARK       I    between atoms: S2_35  and  O6_49 
REMARK       I    between atoms: O1_37  and  C1_61 
REMARK       I    between atoms: O2S_45  and  S1_69 
REMARK       I    between atoms: O3_46  and  C3_55 
REMARK       I    between atoms: C5_47  and  C6_66 
REMARK       I    between atoms: O6_49  and  C6_66 
REMARK       I    between atoms: O1S_52  and  S1_69 
REMARK       I    between atoms: C1_54  and  O4_62 
REMARK       I    between atoms: C4_59  and  O1_67 
ROOT
ATOM      1  C3  UAP d 901     -24.216  87.030  16.345  0.00  0.00     0.086 C 
ATOM      2  O1S UAP d 901     -21.009  84.848  13.774  0.00  0.00    -0.572 OA
ATOM      3  C6  UAP d 901     -24.016  87.058  20.004  0.00  0.00     0.233 C 
ATOM      4  O2  UAP d 901     -22.784  85.195  15.716  0.00  0.00    -0.244 OA
ATOM      5  O3  UAP d 901     -25.366  87.520  15.689  0.00  0.00    -0.389 OA
ATOM      6  O61 UAP d 901     -24.242  88.274  20.200  0.00  0.00    -0.642 OA
ATOM      7  O5  UAP d 901     -23.748  85.293  18.533  0.00  0.00    -0.311 OA
ATOM      8  O2S UAP d 901     -22.826  86.365  13.336  0.00  0.00    -0.572 OA
ATOM      9  S   UAP d 901     -22.447  85.097  13.984  0.00  0.00     0.252 S 
ATOM     10  C5  UAP d 901     -24.001  86.591  18.755  0.00  0.00     0.147 C 
ATOM     11  C2  UAP d 901     -24.100  85.517  16.157  0.00  0.00     0.135 C 
ATOM     12  O62 UAP d 901     -23.793  86.274  20.951  0.00  0.00    -0.642 OA
ATOM     13  O3S UAP d 901     -23.229  83.993  13.396  0.00  0.00    -0.572 OA
ATOM     14  C4  UAP d 901     -24.230  87.438  17.735  0.00  0.00    -0.034 C 
ATOM     15  C1  UAP d 901     -24.429  84.726  17.416  0.00  0.00     0.167 C 
ATOM     16  H   UAP d 901     -23.336  87.455  15.909  0.00  0.00     0.093 H 
ATOM     17  H   UAP d 901     -26.158  87.130  16.092  0.00  0.00     0.210 HD
ATOM     18  H   UAP d 901     -24.826  85.238  15.423  0.00  0.00     0.097 H 
ATOM     19  H   UAP d 901     -24.424  88.427  17.954  0.00  0.00     0.085 H 
ATOM     20  H   UAP d 901     -24.099  83.714  17.307  0.00  0.00     0.134 H 
ATOM     21  O1S IDS d 903     -33.903  76.653  19.659  0.00  0.00    -0.572 OA
ATOM     22  O2  IDS d 903     -32.674  78.983  19.411  0.00  0.00    -0.244 OA
ATOM     23  O5  IDS d 903     -32.438  82.290  18.046  0.00  0.00    -0.340 OA
ATOM     24  C6  IDS d 903     -30.776  83.530  16.905  0.00  0.00     0.206 C 
ATOM     25  O2S IDS d 903     -32.911  77.145  17.515  0.00  0.00    -0.572 OA
ATOM     26  C3  IDS d 903     -30.879  80.530  19.217  0.00  0.00     0.094 C 
ATOM     27  O3S IDS d 903     -31.507  76.614  19.403  0.00  0.00    -0.572 OA
ATOM     28  O3  IDS d 903     -29.969  79.509  19.565  0.00  0.00    -0.390 OA
ATOM     29  O61 IDS d 903     -29.803  83.629  16.135  0.00  0.00    -0.646 OA
ATOM     30  C1  IDS d 903     -33.098  81.032  18.256  0.00  0.00     0.161 C 
ATOM     31  C4  IDS d 903     -30.203  81.500  18.240  0.00  0.00     0.103 C 
ATOM     32  C2  IDS d 903     -32.074  79.920  18.523  0.00  0.00     0.134 C 
ATOM     33  S   IDS d 903     -32.756  77.277  18.975  0.00  0.00     0.252 S 
ATOM     34  C5  IDS d 903     -31.237  82.142  17.305  0.00  0.00     0.152 C 
ATOM     35  O62 IDS d 903     -31.394  84.521  17.357  0.00  0.00    -0.646 OA
ATOM     36  H   IDS d 903     -31.186  81.045  20.103  0.00  0.00     0.091 H 
ATOM     37  H   IDS d 903     -29.690  79.039  18.764  0.00  0.00     0.210 HD
ATOM     38  H   IDS d 903     -33.754  81.135  19.096  0.00  0.00     0.133 H 
ATOM     39  H   IDS d 903     -29.491  80.951  17.659  0.00  0.00     0.092 H 
ATOM     40  H   IDS d 903     -31.776  79.449  17.611  0.00  0.00     0.097 H 
ATOM     41  H   IDS d 903     -31.368  81.537  16.432  0.00  0.00     0.104 H 
ATOM     42  O6  SGN d 902     -24.850  81.264  18.001  0.00  0.00    -0.254 OA
ATOM     43  C1  SGN d 902     -28.402  82.160  19.711  0.00  0.00     0.150 C 
ATOM     44  C5  SGN d 902     -26.870  82.543  17.876  0.00  0.00     0.091 C 
ATOM     45  N   SGN d 902     -28.900  83.953  21.275  0.00  0.00    -0.210 NA
ATOM     46  S1  SGN d 902     -29.308  83.211  22.828  0.00  0.00     0.156 S 
ATOM     47  C4  SGN d 902     -26.286  83.766  18.585  0.00  0.00     0.095 C 
ATOM     48  O5S SGN d 902     -23.122  79.500  17.058  0.00  0.00    -0.572 OA
ATOM     49  C2  SGN d 902     -27.854  83.373  20.458  0.00  0.00     0.081 C 
ATOM     50  S2  SGN d 902     -23.201  80.911  17.481  0.00  0.00     0.251 S 
ATOM     51  O3S SGN d 902     -29.452  81.754  22.656  0.00  0.00    -0.296 OA
ATOM     52  C6  SGN d 902     -25.784  81.829  17.083  0.00  0.00     0.067 C 
ATOM     53  O3  SGN d 902     -26.830  85.522  20.135  0.00  0.00    -0.391 OA
ATOM     54  O2S SGN d 902     -28.232  83.486  23.798  0.00  0.00    -0.296 OA
ATOM     55  O6S SGN d 902     -22.846  81.792  16.351  0.00  0.00    -0.572 OA
ATOM     56  C3  SGN d 902     -27.360  84.407  19.454  0.00  0.00     0.083 C 
ATOM     57  O5  SGN d 902     -27.378  81.628  18.860  0.00  0.00    -0.349 OA
ATOM     58  O1S SGN d 902     -30.576  83.778  23.323  0.00  0.00    -0.296 OA
ATOM     59  O4S SGN d 902     -22.271  81.147  18.602  0.00  0.00    -0.572 OA
ATOM     60  O4  SGN d 902     -25.841  84.717  17.617  0.00  0.00    -0.348 OA
ATOM     61  O1  SGN d 902     -29.569  82.543  18.980  0.00  0.00    -0.348 OA
ATOM     62  H   SGN d 902     -28.688  81.390  20.397  0.00  0.00     0.131 H 
ATOM     63  H   SGN d 902     -27.649  82.865  17.217  0.00  0.00     0.090 H 
ATOM     64  H   SGN d 902     -29.751  83.950  20.712  0.00  0.00     0.140 HD
ATOM     65  H   SGN d 902     -25.461  83.460  19.193  0.00  0.00     0.091 H 
ATOM     66  H   SGN d 902     -27.042  83.069  21.085  0.00  0.00     0.076 H 
ATOM     67  H   SGN d 902     -30.160  81.571  22.019  0.00  0.00     0.231 HD
ATOM     68  H   SGN d 902     -26.222  81.052  16.490  0.00  0.00     0.080 H 
ATOM     69  H   SGN d 902     -25.289  82.521  16.435  0.00  0.00     0.080 H 
ATOM     70  H   SGN d 902     -26.517  86.176  19.490  0.00  0.00     0.210 HD
ATOM     71  H   SGN d 902     -28.135  84.444  23.912  0.00  0.00     0.231 HD
ATOM     72  H   SGN d 902     -28.171  84.739  18.841  0.00  0.00     0.089 H 
ATOM     73  H   SGN d 902     -30.479  84.737  23.436  0.00  0.00     0.231 HD
ATOM     74  O4S SGN d 904     -36.768  82.044  21.522  0.00  0.00    -0.572 OA
ATOM     75  O5S SGN d 904     -37.550  79.764  21.460  0.00  0.00    -0.572 OA
ATOM     76  C3  SGN d 904     -35.030  82.020  15.534  0.00  0.00     0.083 C 
ATOM     77  N   SGN d 904     -36.407  83.215  13.953  0.00  0.00    -0.210 NA
ATOM     78  O5  SGN d 904     -37.420  80.925  16.619  0.00  0.00    -0.350 OA
ATOM     79  O6S SGN d 904     -35.201  80.230  21.227  0.00  0.00    -0.572 OA
ATOM     80  O3S SGN d 904     -37.989  85.121  14.830  0.00  0.00    -0.296 OA
ATOM     81  O4  SGN d 904     -33.813  80.676  17.076  0.00  0.00    -0.348 OA
ATOM     82  S2  SGN d 904     -36.561  80.712  20.922  0.00  0.00     0.251 S 
ATOM     83  O1  SGN d 904     -37.212  80.565  14.300  0.00  0.00    -0.369 OA
ATOM     84  O3  SGN d 904     -34.071  83.053  15.519  0.00  0.00    -0.391 OA
ATOM     85  O2S SGN d 904     -37.235  85.292  12.540  0.00  0.00    -0.296 OA
ATOM     86  C5  SGN d 904     -36.170  80.305  16.941  0.00  0.00     0.091 C 
ATOM     87  O6  SGN d 904     -36.758  80.819  19.177  0.00  0.00    -0.254 OA
ATOM     88  O1S SGN d 904     -38.890  83.641  13.155  0.00  0.00    -0.296 OA
ATOM     89  C1  SGN d 904     -37.462  81.531  15.324  0.00  0.00     0.147 C 
ATOM     90  C4  SGN d 904     -35.056  81.351  16.900  0.00  0.00     0.095 C 
ATOM     91  C2  SGN d 904     -36.397  82.618  15.264  0.00  0.00     0.081 C 
ATOM     92  C6  SGN d 904     -36.294  79.755  18.348  0.00  0.00     0.067 C 
ATOM     93  S1  SGN d 904     -37.688  84.368  13.599  0.00  0.00     0.156 S 
ATOM     94  H   SGN d 904     -34.779  81.296  14.787  0.00  0.00     0.089 H 
ATOM     95  H   SGN d 904     -36.479  82.459  13.272  0.00  0.00     0.140 HD
ATOM     96  H   SGN d 904     -37.196  85.599  15.118  0.00  0.00     0.231 HD
ATOM     97  H   SGN d 904     -37.890  79.872  14.336  0.00  0.00     0.212 HD
ATOM     98  H   SGN d 904     -34.294  83.711  16.195  0.00  0.00     0.210 HD
ATOM     99  H   SGN d 904     -36.444  85.766  12.841  0.00  0.00     0.231 HD
ATOM    100  H   SGN d 904     -35.938  79.529  16.243  0.00  0.00     0.090 H 
ATOM    101  H   SGN d 904     -39.180  83.037  13.856  0.00  0.00     0.231 HD
ATOM    102  H   SGN d 904     -38.435  81.947  15.163  0.00  0.00     0.131 H 
ATOM    103  H   SGN d 904     -35.219  82.083  17.663  0.00  0.00     0.091 H 
ATOM    104  H   SGN d 904     -36.607  83.359  16.006  0.00  0.00     0.076 H 
ATOM    105  H   SGN d 904     -35.341  79.411  18.692  0.00  0.00     0.080 H 
ATOM    106  H   SGN d 904     -36.973  78.929  18.375  0.00  0.00     0.080 H 
ENDROOT
TORSDOF 33
ENDMDL
MODEL 34
REMARK VINA RESULT:      -7.2      5.781      8.382
REMARK  0 active torsions:
REMARK  status: ('A' for Active; 'I' for Inactive)
REMARK       I    between atoms: C3_1  and  O3_18 
REMARK       I    between atoms: O6_3  and  C6_41 
REMARK       I    between atoms: O6_3  and  S2_27 
REMARK       I    between atoms: C1_4  and  O1_67 
REMARK       I    between atoms: O2_6  and  C2_60 
REMARK       I    between atoms: O2_6  and  S_64 
REMARK       I    between atoms: C5_7  and  C6_41 
REMARK       I    between atoms: C6_9  and  C5_36 
REMARK       I    between atoms: N_10  and  C2_26 
REMARK       I    between atoms: N_10  and  S1_14 
REMARK       I    between atoms: O2_12  and  C2_39 
REMARK       I    between atoms: O2_12  and  S_34 
REMARK       I    between atoms: C3_13  and  O3_44 
REMARK       I    between atoms: S1_14  and  O1S_57 
REMARK       I    between atoms: S1_14  and  O2S_48 
REMARK       I    between atoms: S1_14  and  O3S_38 
REMARK       I    between atoms: C6_16  and  C5_68 
REMARK       I    between atoms: C4_17  and  O4_62 
REMARK       I    between atoms: N_21  and  C2_65 
REMARK       I    between atoms: N_21  and  S1_69 
REMARK       I    between atoms: C3_25  and  O3_30 
REMARK       I    between atoms: O3S_29  and  S1_69 
REMARK       I    between atoms: O4_31  and  C1_42 
REMARK       I    between atoms: O4_31  and  C4_63 
REMARK       I    between atoms: S2_35  and  O6_49 
REMARK       I    between atoms: O1_37  and  C1_61 
REMARK       I    between atoms: O2S_45  and  S1_69 
REMARK       I    between atoms: O3_46  and  C3_55 
REMARK       I    between atoms: C5_47  and  C6_66 
REMARK       I    between atoms: O6_49  and  C6_66 
REMARK       I    between atoms: O1S_52  and  S1_69 
REMARK       I    between atoms: C1_54  and  O4_62 
REMARK       I    between atoms: C4_59  and  O1_67 
ROOT
ATOM      1  C3  UAP d 901     -34.564  76.958  21.692  0.00  0.00     0.086 C 
ATOM      2  O1S UAP d 901     -36.581  79.105  25.295  0.00  0.00    -0.572 OA
ATOM      3  C6  UAP d 901     -32.737  73.814  22.139  0.00  0.00     0.233 C 
ATOM      4  O2  UAP d 901     -34.677  77.868  23.923  0.00  0.00    -0.244 OA
ATOM      5  O3  UAP d 901     -34.514  77.644  20.459  0.00  0.00    -0.389 OA
ATOM      6  O61 UAP d 901     -33.215  73.174  21.174  0.00  0.00    -0.642 OA
ATOM      7  O5  UAP d 901     -32.643  75.757  23.391  0.00  0.00    -0.311 OA
ATOM      8  O2S UAP d 901     -36.622  79.354  22.900  0.00  0.00    -0.572 OA
ATOM      9  S   UAP d 901     -35.751  79.262  24.086  0.00  0.00     0.252 S 
ATOM     10  C5  UAP d 901     -33.140  75.067  22.354  0.00  0.00     0.147 C 
ATOM     11  C2  UAP d 901     -33.839  77.758  22.775  0.00  0.00     0.135 C 
ATOM     12  O62 UAP d 901     -31.898  73.302  22.910  0.00  0.00    -0.642 OA
ATOM     13  O3S UAP d 901     -34.943  80.490  24.199  0.00  0.00    -0.572 OA
ATOM     14  C4  UAP d 901     -34.051  75.614  21.529  0.00  0.00    -0.034 C 
ATOM     15  C1  UAP d 901     -32.497  77.158  23.172  0.00  0.00     0.167 C 
ATOM     16  H   UAP d 901     -35.578  76.864  22.018  0.00  0.00     0.093 H 
ATOM     17  H   UAP d 901     -33.592  77.725  20.171  0.00  0.00     0.210 HD
ATOM     18  H   UAP d 901     -33.632  78.724  22.363  0.00  0.00     0.097 H 
ATOM     19  H   UAP d 901     -34.402  75.047  20.742  0.00  0.00     0.085 H 
ATOM     20  H   UAP d 901     -32.155  77.601  24.084  0.00  0.00     0.134 H 
ATOM     21  O1S IDS d 903     -20.819  81.812  21.792  0.00  0.00    -0.572 OA
ATOM     22  O2  IDS d 903     -23.070  80.598  21.116  0.00  0.00    -0.244 OA
ATOM     23  O5  IDS d 903     -25.902  80.189  18.954  0.00  0.00    -0.340 OA
ATOM     24  C6  IDS d 903     -28.247  80.078  19.250  0.00  0.00     0.206 C 
ATOM     25  O2S IDS d 903     -22.857  83.085  22.007  0.00  0.00    -0.572 OA
ATOM     26  C3  IDS d 903     -25.168  79.514  21.385  0.00  0.00     0.094 C 
ATOM     27  O3S IDS d 903     -22.374  81.306  23.563  0.00  0.00    -0.572 OA
ATOM     28  O3  IDS d 903     -24.924  79.399  22.770  0.00  0.00    -0.390 OA
ATOM     29  O61 IDS d 903     -29.304  80.381  19.834  0.00  0.00    -0.646 OA
ATOM     30  C1  IDS d 903     -24.647  80.780  19.329  0.00  0.00     0.161 C 
ATOM     31  C4  IDS d 903     -26.674  79.692  21.149  0.00  0.00     0.103 C 
ATOM     32  C2  IDS d 903     -24.461  80.738  20.853  0.00  0.00     0.134 C 
ATOM     33  S   IDS d 903     -22.245  81.753  22.160  0.00  0.00     0.252 S 
ATOM     34  C5  IDS d 903     -26.934  80.507  19.875  0.00  0.00     0.152 C 
ATOM     35  O62 IDS d 903     -28.220  79.446  18.169  0.00  0.00    -0.646 OA
ATOM     36  H   IDS d 903     -24.814  78.635  20.891  0.00  0.00     0.091 H 
ATOM     37  H   IDS d 903     -25.244  80.196  23.221  0.00  0.00     0.210 HD
ATOM     38  H   IDS d 903     -23.863  80.231  18.850  0.00  0.00     0.133 H 
ATOM     39  H   IDS d 903     -27.089  80.205  21.991  0.00  0.00     0.092 H 
ATOM     40  H   IDS d 903     -24.852  81.623  21.309  0.00  0.00     0.097 H 
ATOM     41  H   IDS d 903     -26.966  81.551  20.108  0.00  0.00     0.104 H 
ATOM     42  O6  SGN d 902     -29.881  78.348  25.232  0.00  0.00    -0.254 OA
ATOM     43  C1  SGN d 902     -27.358  77.606  22.162  0.00  0.00     0.150 C 
ATOM     44  C5  SGN d 902     -29.490  78.502  22.875  0.00  0.00     0.091 C 
ATOM     45  N   SGN d 902     -27.280  75.644  20.729  0.00  0.00    -0.210 NA
ATOM     46  S1  SGN d 902     -25.762  74.798  21.060  0.00  0.00     0.156 S 
ATOM     47  C4  SGN d 902     -30.185  77.179  22.548  0.00  0.00     0.095 C 
ATOM     48  O5S SGN d 902     -30.382  79.397  27.606  0.00  0.00    -0.572 OA
ATOM     49  C2  SGN d 902     -28.005  76.267  21.818  0.00  0.00     0.081 C 
ATOM     50  S2  SGN d 902     -30.943  78.434  26.638  0.00  0.00     0.251 S 
ATOM     51  O3S SGN d 902     -24.905  75.639  21.916  0.00  0.00    -0.296 OA
ATOM     52  C6  SGN d 902     -30.146  79.153  24.085  0.00  0.00     0.067 C 
ATOM     53  O3  SGN d 902     -30.065  75.260  21.105  0.00  0.00    -0.391 OA
ATOM     54  O2S SGN d 902     -26.051  73.530  21.754  0.00  0.00    -0.296 OA
ATOM     55  O6S SGN d 902     -32.284  78.878  26.213  0.00  0.00    -0.572 OA
ATOM     56  C3  SGN d 902     -29.452  76.494  21.402  0.00  0.00     0.083 C 
ATOM     57  O5  SGN d 902     -28.115  78.243  23.199  0.00  0.00    -0.349 OA
ATOM     58  O1S SGN d 902     -25.070  74.520  19.789  0.00  0.00    -0.296 OA
ATOM     59  O4S SGN d 902     -31.040  77.101  27.263  0.00  0.00    -0.572 OA
ATOM     60  O4  SGN d 902     -31.535  77.428  22.154  0.00  0.00    -0.348 OA
ATOM     61  O1  SGN d 902     -27.275  78.407  20.981  0.00  0.00    -0.348 OA
ATOM     62  H   SGN d 902     -26.362  77.464  22.527  0.00  0.00     0.131 H 
ATOM     63  H   SGN d 902     -29.566  79.151  22.027  0.00  0.00     0.090 H 
ATOM     64  H   SGN d 902     -27.069  76.380  20.055  0.00  0.00     0.140 HD
ATOM     65  H   SGN d 902     -30.173  76.551  23.414  0.00  0.00     0.091 H 
ATOM     66  H   SGN d 902     -27.976  75.626  22.675  0.00  0.00     0.076 H 
ATOM     67  H   SGN d 902     -24.714  76.475  21.461  0.00  0.00     0.231 HD
ATOM     68  H   SGN d 902     -29.742  80.133  24.231  0.00  0.00     0.080 H 
ATOM     69  H   SGN d 902     -31.202  79.234  23.930  0.00  0.00     0.080 H 
ATOM     70  H   SGN d 902     -30.986  75.411  20.841  0.00  0.00     0.210 HD
ATOM     71  H   SGN d 902     -26.615  72.975  21.193  0.00  0.00     0.231 HD
ATOM     72  H   SGN d 902     -29.490  77.110  20.528  0.00  0.00     0.089 H 
ATOM     73  H   SGN d 902     -25.635  73.966  19.227  0.00  0.00     0.231 HD
ATOM     74  O4S SGN d 904     -21.287  78.717  16.230  0.00  0.00    -0.572 OA
ATOM     75  O5S SGN d 904     -19.500  80.031  17.175  0.00  0.00    -0.572 OA
ATOM     76  C3  SGN d 904     -25.531  83.217  17.007  0.00  0.00     0.083 C 
ATOM     77  N   SGN d 904     -26.260  84.433  15.053  0.00  0.00    -0.210 NA
ATOM     78  O5  SGN d 904     -22.863  83.534  16.073  0.00  0.00    -0.350 OA
ATOM     79  O6S SGN d 904     -21.314  79.294  18.575  0.00  0.00    -0.572 OA
ATOM     80  O3S SGN d 904     -25.966  83.331  12.686  0.00  0.00    -0.296 OA
ATOM     81  O4  SGN d 904     -24.640  82.150  18.938  0.00  0.00    -0.348 OA
ATOM     82  S2  SGN d 904     -20.945  79.753  17.222  0.00  0.00     0.251 S 
ATOM     83  O1  SGN d 904     -24.021  85.577  16.266  0.00  0.00    -0.369 OA
ATOM     84  O3  SGN d 904     -26.728  82.471  17.020  0.00  0.00    -0.391 OA
ATOM     85  O2S SGN d 904     -27.750  84.944  12.928  0.00  0.00    -0.296 OA
ATOM     86  C5  SGN d 904     -23.076  83.156  17.437  0.00  0.00     0.091 C 
ATOM     87  O6  SGN d 904     -21.826  81.230  16.854  0.00  0.00    -0.254 OA
ATOM     88  O1S SGN d 904     -25.447  85.677  12.868  0.00  0.00    -0.296 OA
ATOM     89  C1  SGN d 904     -23.893  84.362  15.523  0.00  0.00     0.147 C 
ATOM     90  C4  SGN d 904     -24.387  82.378  17.555  0.00  0.00     0.095 C 
ATOM     91  C2  SGN d 904     -25.208  83.597  15.575  0.00  0.00     0.081 C 
ATOM     92  C6  SGN d 904     -21.921  82.259  17.837  0.00  0.00     0.067 C 
ATOM     93  S1  SGN d 904     -26.362  84.608  13.305  0.00  0.00     0.156 S 
ATOM     94  H   SGN d 904     -25.655  84.091  17.612  0.00  0.00     0.089 H 
ATOM     95  H   SGN d 904     -26.134  85.365  15.447  0.00  0.00     0.140 HD
ATOM     96  H   SGN d 904     -26.571  82.630  12.976  0.00  0.00     0.231 HD
ATOM     97  H   SGN d 904     -23.184  86.066  16.233  0.00  0.00     0.212 HD
ATOM     98  H   SGN d 904     -26.620  81.678  16.473  0.00  0.00     0.210 HD
ATOM     99  H   SGN d 904     -28.345  84.235  13.220  0.00  0.00     0.231 HD
ATOM    100  H   SGN d 904     -23.130  84.018  18.068  0.00  0.00     0.090 H 
ATOM    101  H   SGN d 904     -24.538  85.449  13.120  0.00  0.00     0.231 HD
ATOM    102  H   SGN d 904     -23.640  84.611  14.513  0.00  0.00     0.131 H 
ATOM    103  H   SGN d 904     -24.313  81.460  17.010  0.00  0.00     0.091 H 
ATOM    104  H   SGN d 904     -25.123  82.707  14.988  0.00  0.00     0.076 H 
ATOM    105  H   SGN d 904     -22.105  81.831  18.800  0.00  0.00     0.080 H 
ATOM    106  H   SGN d 904     -21.009  82.816  17.892  0.00  0.00     0.080 H 
ENDROOT
TORSDOF 33
ENDMDL
MODEL 35
REMARK VINA RESULT:      -7.2      5.064     10.126
REMARK  0 active torsions:
REMARK  status: ('A' for Active; 'I' for Inactive)
REMARK       I    between atoms: C3_1  and  O3_18 
REMARK       I    between atoms: O6_3  and  C6_41 
REMARK       I    between atoms: O6_3  and  S2_27 
REMARK       I    between atoms: C1_4  and  O1_67 
REMARK       I    between atoms: O2_6  and  C2_60 
REMARK       I    between atoms: O2_6  and  S_64 
REMARK       I    between atoms: C5_7  and  C6_41 
REMARK       I    between atoms: C6_9  and  C5_36 
REMARK       I    between atoms: N_10  and  C2_26 
REMARK       I    between atoms: N_10  and  S1_14 
REMARK       I    between atoms: O2_12  and  C2_39 
REMARK       I    between atoms: O2_12  and  S_34 
REMARK       I    between atoms: C3_13  and  O3_44 
REMARK       I    between atoms: S1_14  and  O1S_57 
REMARK       I    between atoms: S1_14  and  O2S_48 
REMARK       I    between atoms: S1_14  and  O3S_38 
REMARK       I    between atoms: C6_16  and  C5_68 
REMARK       I    between atoms: C4_17  and  O4_62 
REMARK       I    between atoms: N_21  and  C2_65 
REMARK       I    between atoms: N_21  and  S1_69 
REMARK       I    between atoms: C3_25  and  O3_30 
REMARK       I    between atoms: O3S_29  and  S1_69 
REMARK       I    between atoms: O4_31  and  C1_42 
REMARK       I    between atoms: O4_31  and  C4_63 
REMARK       I    between atoms: S2_35  and  O6_49 
REMARK       I    between atoms: O1_37  and  C1_61 
REMARK       I    between atoms: O2S_45  and  S1_69 
REMARK       I    between atoms: O3_46  and  C3_55 
REMARK       I    between atoms: C5_47  and  C6_66 
REMARK       I    between atoms: O6_49  and  C6_66 
REMARK       I    between atoms: O1S_52  and  S1_69 
REMARK       I    between atoms: C1_54  and  O4_62 
REMARK       I    between atoms: C4_59  and  O1_67 
ROOT
ATOM      1  C3  UAP d 901     -21.049  83.050  17.772  0.00  0.00     0.086 C 
ATOM      2  O1S UAP d 901     -19.500  84.045  22.047  0.00  0.00    -0.572 OA
ATOM      3  C6  UAP d 901     -20.698  85.447  15.023  0.00  0.00     0.233 C 
ATOM      4  O2  UAP d 901     -20.768  84.409  19.745  0.00  0.00    -0.244 OA
ATOM      5  O3  UAP d 901     -21.822  81.881  17.606  0.00  0.00    -0.389 OA
ATOM      6  O61 UAP d 901     -20.271  84.668  14.141  0.00  0.00    -0.642 OA
ATOM      7  O5  UAP d 901     -21.424  85.797  17.192  0.00  0.00    -0.311 OA
ATOM      8  O2S UAP d 901     -20.321  82.077  20.928  0.00  0.00    -0.572 OA
ATOM      9  S   UAP d 901     -20.605  83.489  21.245  0.00  0.00     0.252 S 
ATOM     10  C5  UAP d 901     -20.977  84.969  16.236  0.00  0.00     0.147 C 
ATOM     11  C2  UAP d 901     -21.721  83.996  18.768  0.00  0.00     0.135 C 
ATOM     12  O62 UAP d 901     -20.859  86.665  14.796  0.00  0.00    -0.642 OA
ATOM     13  O3S UAP d 901     -21.863  83.576  22.011  0.00  0.00    -0.572 OA
ATOM     14  C4  UAP d 901     -20.792  83.659  16.483  0.00  0.00    -0.034 C 
ATOM     15  C1  UAP d 901     -22.347  85.219  18.111  0.00  0.00     0.167 C 
ATOM     16  H   UAP d 901     -20.096  82.803  18.191  0.00  0.00     0.093 H 
ATOM     17  H   UAP d 901     -22.684  82.116  17.226  0.00  0.00     0.210 HD
ATOM     18  H   UAP d 901     -22.520  83.451  19.225  0.00  0.00     0.097 H 
ATOM     19  H   UAP d 901     -20.451  83.059  15.717  0.00  0.00     0.085 H 
ATOM     20  H   UAP d 901     -22.578  85.954  18.854  0.00  0.00     0.134 H 
ATOM     21  O1S IDS d 903     -34.488  88.682  17.368  0.00  0.00    -0.572 OA
ATOM     22  O2  IDS d 903     -32.264  87.392  16.744  0.00  0.00    -0.244 OA
ATOM     23  O5  IDS d 903     -30.453  84.364  16.102  0.00  0.00    -0.340 OA
ATOM     24  C6  IDS d 903     -28.445  83.398  16.899  0.00  0.00     0.206 C 
ATOM     25  O2S IDS d 903     -33.481  87.336  19.098  0.00  0.00    -0.572 OA
ATOM     26  C3  IDS d 903     -29.945  86.872  16.698  0.00  0.00     0.094 C 
ATOM     27  O3S IDS d 903     -32.453  89.414  18.432  0.00  0.00    -0.572 OA
ATOM     28  O3  IDS d 903     -29.660  88.116  17.300  0.00  0.00    -0.390 OA
ATOM     29  O61 IDS d 903     -27.592  83.191  17.781  0.00  0.00    -0.646 OA
ATOM     30  C1  IDS d 903     -31.648  85.111  16.381  0.00  0.00     0.161 C 
ATOM     31  C4  IDS d 903     -28.916  85.835  17.167  0.00  0.00     0.103 C 
ATOM     32  C2  IDS d 903     -31.314  86.407  17.135  0.00  0.00     0.134 C 
ATOM     33  S   IDS d 903     -33.215  88.238  17.963  0.00  0.00     0.252 S 
ATOM     34  C5  IDS d 903     -29.525  84.426  17.174  0.00  0.00     0.152 C 
ATOM     35  O62 IDS d 903     -28.458  82.792  15.804  0.00  0.00    -0.646 OA
ATOM     36  H   IDS d 903     -29.909  86.979  15.635  0.00  0.00     0.091 H 
ATOM     37  H   IDS d 903     -29.692  88.022  18.265  0.00  0.00     0.210 HD
ATOM     38  H   IDS d 903     -32.123  85.341  15.451  0.00  0.00     0.133 H 
ATOM     39  H   IDS d 903     -28.605  86.092  18.158  0.00  0.00     0.092 H 
ATOM     40  H   IDS d 903     -31.335  86.250  18.192  0.00  0.00     0.097 H 
ATOM     41  H   IDS d 903     -29.983  84.229  18.121  0.00  0.00     0.104 H 
ATOM     42  O6  SGN d 902     -24.431  87.784  19.369  0.00  0.00    -0.254 OA
ATOM     43  C1  SGN d 902     -26.964  86.984  16.321  0.00  0.00     0.150 C 
ATOM     44  C5  SGN d 902     -25.533  86.105  18.065  0.00  0.00     0.091 C 
ATOM     45  N   SGN d 902     -26.419  86.590  13.986  0.00  0.00    -0.210 NA
ATOM     46  S1  SGN d 902     -27.075  87.939  13.048  0.00  0.00     0.156 S 
ATOM     47  C4  SGN d 902     -24.380  85.943  17.072  0.00  0.00     0.095 C 
ATOM     48  O5S SGN d 902     -23.873  89.001  21.649  0.00  0.00    -0.572 OA
ATOM     49  C2  SGN d 902     -25.846  86.839  15.293  0.00  0.00     0.081 C 
ATOM     50  S2  SGN d 902     -23.211  88.288  20.539  0.00  0.00     0.251 S 
ATOM     51  O3S SGN d 902     -27.942  88.764  13.910  0.00  0.00    -0.296 OA
ATOM     52  C6  SGN d 902     -24.993  86.475  19.440  0.00  0.00     0.067 C 
ATOM     53  O3  SGN d 902     -23.893  85.550  14.751  0.00  0.00    -0.391 OA
ATOM     54  O2S SGN d 902     -25.965  88.765  12.538  0.00  0.00    -0.296 OA
ATOM     55  O6S SGN d 902     -22.511  87.097  21.059  0.00  0.00    -0.572 OA
ATOM     56  C3  SGN d 902     -24.943  85.676  15.683  0.00  0.00     0.083 C 
ATOM     57  O5  SGN d 902     -26.388  87.170  17.622  0.00  0.00    -0.349 OA
ATOM     58  O1S SGN d 902     -27.860  87.412  11.916  0.00  0.00    -0.296 OA
ATOM     59  O4S SGN d 902     -22.239  89.183  19.882  0.00  0.00    -0.572 OA
ATOM     60  O4  SGN d 902     -23.560  84.841  17.462  0.00  0.00    -0.348 OA
ATOM     61  O1  SGN d 902     -27.810  85.833  16.264  0.00  0.00    -0.348 OA
ATOM     62  H   SGN d 902     -27.568  87.840  16.108  0.00  0.00     0.131 H 
ATOM     63  H   SGN d 902     -26.071  85.182  18.122  0.00  0.00     0.090 H 
ATOM     64  H   SGN d 902     -27.179  85.923  14.118  0.00  0.00     0.140 HD
ATOM     65  H   SGN d 902     -23.796  86.840  17.062  0.00  0.00     0.091 H 
ATOM     66  H   SGN d 902     -25.271  87.742  15.262  0.00  0.00     0.076 H 
ATOM     67  H   SGN d 902     -28.673  88.222  14.246  0.00  0.00     0.231 HD
ATOM     68  H   SGN d 902     -25.788  86.461  20.156  0.00  0.00     0.080 H 
ATOM     69  H   SGN d 902     -24.245  85.770  19.741  0.00  0.00     0.080 H 
ATOM     70  H   SGN d 902     -23.323  84.808  15.005  0.00  0.00     0.210 HD
ATOM     71  H   SGN d 902     -25.393  88.225  11.971  0.00  0.00     0.231 HD
ATOM     72  H   SGN d 902     -25.503  84.765  15.688  0.00  0.00     0.089 H 
ATOM     73  H   SGN d 902     -27.287  86.870  11.350  0.00  0.00     0.231 HD
ATOM     74  O4S SGN d 904     -34.154  85.186  12.037  0.00  0.00    -0.572 OA
ATOM     75  O5S SGN d 904     -35.982  86.406  13.030  0.00  0.00    -0.572 OA
ATOM     76  C3  SGN d 904     -32.937  81.999  17.256  0.00  0.00     0.083 C 
ATOM     77  N   SGN d 904     -33.592  79.677  17.341  0.00  0.00    -0.210 NA
ATOM     78  O5  SGN d 904     -35.502  82.568  16.166  0.00  0.00    -0.350 OA
ATOM     79  O6S SGN d 904     -33.732  86.794  13.790  0.00  0.00    -0.572 OA
ATOM     80  O3S SGN d 904     -33.954  78.374  15.088  0.00  0.00    -0.296 OA
ATOM     81  O4  SGN d 904     -32.497  84.337  17.225  0.00  0.00    -0.348 OA
ATOM     82  S2  SGN d 904     -34.675  85.778  13.285  0.00  0.00     0.251 S 
ATOM     83  O1  SGN d 904     -35.607  81.401  18.211  0.00  0.00    -0.369 OA
ATOM     84  O3  SGN d 904     -31.589  81.638  17.053  0.00  0.00    -0.391 OA
ATOM     85  O2S SGN d 904     -33.321  77.066  17.019  0.00  0.00    -0.296 OA
ATOM     86  C5  SGN d 904     -34.722  83.646  16.693  0.00  0.00     0.091 C 
ATOM     87  O6  SGN d 904     -34.869  84.517  14.495  0.00  0.00    -0.254 OA
ATOM     88  O1S SGN d 904     -35.554  77.977  16.847  0.00  0.00    -0.296 OA
ATOM     89  C1  SGN d 904     -35.290  81.312  16.819  0.00  0.00     0.147 C 
ATOM     90  C4  SGN d 904     -33.235  83.317  16.558  0.00  0.00     0.095 C 
ATOM     91  C2  SGN d 904     -33.826  80.925  16.659  0.00  0.00     0.081 C 
ATOM     92  C6  SGN d 904     -35.043  84.875  15.865  0.00  0.00     0.067 C 
ATOM     93  S1  SGN d 904     -34.130  78.205  16.542  0.00  0.00     0.156 S 
ATOM     94  H   SGN d 904     -33.119  82.101  18.305  0.00  0.00     0.089 H 
ATOM     95  H   SGN d 904     -34.066  79.727  18.243  0.00  0.00     0.140 HD
ATOM     96  H   SGN d 904     -33.016  78.523  14.891  0.00  0.00     0.231 HD
ATOM     97  H   SGN d 904     -36.540  81.647  18.314  0.00  0.00     0.212 HD
ATOM     98  H   SGN d 904     -31.419  81.544  16.103  0.00  0.00     0.210 HD
ATOM     99  H   SGN d 904     -32.386  77.225  16.813  0.00  0.00     0.231 HD
ATOM    100  H   SGN d 904     -34.945  83.809  17.726  0.00  0.00     0.090 H 
ATOM    101  H   SGN d 904     -36.077  78.730  16.530  0.00  0.00     0.231 HD
ATOM    102  H   SGN d 904     -35.926  80.574  16.376  0.00  0.00     0.131 H 
ATOM    103  H   SGN d 904     -32.972  83.251  15.523  0.00  0.00     0.091 H 
ATOM    104  H   SGN d 904     -33.599  80.822  15.619  0.00  0.00     0.076 H 
ATOM    105  H   SGN d 904     -34.379  85.674  16.122  0.00  0.00     0.080 H 
ATOM    106  H   SGN d 904     -36.044  85.205  16.047  0.00  0.00     0.080 H 
ENDROOT
TORSDOF 33
ENDMDL
MODEL 36
REMARK VINA RESULT:      -7.1      4.699     10.243
REMARK  0 active torsions:
REMARK  status: ('A' for Active; 'I' for Inactive)
REMARK       I    between atoms: C3_1  and  O3_18 
REMARK       I    between atoms: O6_3  and  C6_41 
REMARK       I    between atoms: O6_3  and  S2_27 
REMARK       I    between atoms: C1_4  and  O1_67 
REMARK       I    between atoms: O2_6  and  C2_60 
REMARK       I    between atoms: O2_6  and  S_64 
REMARK       I    between atoms: C5_7  and  C6_41 
REMARK       I    between atoms: C6_9  and  C5_36 
REMARK       I    between atoms: N_10  and  C2_26 
REMARK       I    between atoms: N_10  and  S1_14 
REMARK       I    between atoms: O2_12  and  C2_39 
REMARK       I    between atoms: O2_12  and  S_34 
REMARK       I    between atoms: C3_13  and  O3_44 
REMARK       I    between atoms: S1_14  and  O1S_57 
REMARK       I    between atoms: S1_14  and  O2S_48 
REMARK       I    between atoms: S1_14  and  O3S_38 
REMARK       I    between atoms: C6_16  and  C5_68 
REMARK       I    between atoms: C4_17  and  O4_62 
REMARK       I    between atoms: N_21  and  C2_65 
REMARK       I    between atoms: N_21  and  S1_69 
REMARK       I    between atoms: C3_25  and  O3_30 
REMARK       I    between atoms: O3S_29  and  S1_69 
REMARK       I    between atoms: O4_31  and  C1_42 
REMARK       I    between atoms: O4_31  and  C4_63 
REMARK       I    between atoms: S2_35  and  O6_49 
REMARK       I    between atoms: O1_37  and  C1_61 
REMARK       I    between atoms: O2S_45  and  S1_69 
REMARK       I    between atoms: O3_46  and  C3_55 
REMARK       I    between atoms: C5_47  and  C6_66 
REMARK       I    between atoms: O6_49  and  C6_66 
REMARK       I    between atoms: O1S_52  and  S1_69 
REMARK       I    between atoms: C1_54  and  O4_62 
REMARK       I    between atoms: C4_59  and  O1_67 
ROOT
ATOM      1  C3  UAP d 901     -21.549  83.468  16.746  0.00  0.00     0.086 C 
ATOM      2  O1S UAP d 901     -19.529  84.571  20.791  0.00  0.00    -0.572 OA
ATOM      3  C6  UAP d 901     -21.803  85.909  14.026  0.00  0.00     0.233 C 
ATOM      4  O2  UAP d 901     -21.129  84.832  18.691  0.00  0.00    -0.244 OA
ATOM      5  O3  UAP d 901     -22.226  82.232  16.662  0.00  0.00    -0.389 OA
ATOM      6  O61 UAP d 901     -21.430  85.181  13.078  0.00  0.00    -0.642 OA
ATOM      7  O5  UAP d 901     -22.255  86.171  16.280  0.00  0.00    -0.311 OA
ATOM      8  O2S UAP d 901     -20.308  82.543  19.752  0.00  0.00    -0.572 OA
ATOM      9  S   UAP d 901     -20.677  83.918  20.135  0.00  0.00     0.252 S 
ATOM     10  C5  UAP d 901     -21.868  85.397  15.255  0.00  0.00     0.147 C 
ATOM     11  C2  UAP d 901     -22.164  84.337  17.844  0.00  0.00     0.135 C 
ATOM     12  O62 UAP d 901     -22.107  87.108  13.848  0.00  0.00    -0.642 OA
ATOM     13  O3S UAP d 901     -21.820  83.879  21.066  0.00  0.00    -0.572 OA
ATOM     14  C4  UAP d 901     -21.529  84.109  15.447  0.00  0.00    -0.034 C 
ATOM     15  C1  UAP d 901     -22.985  85.500  17.303  0.00  0.00     0.167 C 
ATOM     16  H   UAP d 901     -20.529  83.309  17.026  0.00  0.00     0.093 H 
ATOM     17  H   UAP d 901     -23.149  82.386  16.407  0.00  0.00     0.210 HD
ATOM     18  H   UAP d 901     -22.838  83.715  18.393  0.00  0.00     0.097 H 
ATOM     19  H   UAP d 901     -21.242  83.550  14.629  0.00  0.00     0.085 H 
ATOM     20  H   UAP d 901     -23.180  86.203  18.086  0.00  0.00     0.134 H 
ATOM     21  O1S IDS d 903     -35.384  87.794  18.286  0.00  0.00    -0.572 OA
ATOM     22  O2  IDS d 903     -33.155  86.727  17.339  0.00  0.00    -0.244 OA
ATOM     23  O5  IDS d 903     -31.175  83.892  16.394  0.00  0.00    -0.340 OA
ATOM     24  C6  IDS d 903     -28.995  83.115  16.891  0.00  0.00     0.206 C 
ATOM     25  O2S IDS d 903     -34.028  86.537  19.835  0.00  0.00    -0.572 OA
ATOM     26  C3  IDS d 903     -30.826  86.432  16.968  0.00  0.00     0.094 C 
ATOM     27  O3S IDS d 903     -33.300  88.708  19.079  0.00  0.00    -0.572 OA
ATOM     28  O3  IDS d 903     -30.579  87.692  17.552  0.00  0.00    -0.390 OA
ATOM     29  O61 IDS d 903     -28.013  82.983  17.645  0.00  0.00    -0.646 OA
ATOM     30  C1  IDS d 903     -32.384  84.519  16.848  0.00  0.00     0.161 C 
ATOM     31  C4  IDS d 903     -29.651  85.494  17.271  0.00  0.00     0.103 C 
ATOM     32  C2  IDS d 903     -32.073  85.834  17.576  0.00  0.00     0.134 C 
ATOM     33  S   IDS d 903     -34.006  87.469  18.693  0.00  0.00     0.252 S 
ATOM     34  C5  IDS d 903     -30.119  84.034  17.331  0.00  0.00     0.152 C 
ATOM     35  O62 IDS d 903     -29.101  82.519  15.795  0.00  0.00    -0.646 OA
ATOM     36  H   IDS d 903     -30.947  86.550  15.912  0.00  0.00     0.091 H 
ATOM     37  H   IDS d 903     -30.470  87.588  18.510  0.00  0.00     0.210 HD
ATOM     38  H   IDS d 903     -33.002  84.710  15.996  0.00  0.00     0.133 H 
ATOM     39  H   IDS d 903     -29.233  85.772  18.216  0.00  0.00     0.092 H 
ATOM     40  H   IDS d 903     -31.935  85.668  18.624  0.00  0.00     0.097 H 
ATOM     41  H   IDS d 903     -30.422  83.786  18.327  0.00  0.00     0.104 H 
ATOM     42  O6  SGN d 902     -25.108  87.844  18.885  0.00  0.00    -0.254 OA
ATOM     43  C1  SGN d 902     -27.949  86.830  16.194  0.00  0.00     0.150 C 
ATOM     44  C5  SGN d 902     -26.216  86.078  17.708  0.00  0.00     0.091 C 
ATOM     45  N   SGN d 902     -27.694  86.510  13.798  0.00  0.00    -0.210 NA
ATOM     46  S1  SGN d 902     -28.595  87.797  12.986  0.00  0.00     0.156 S 
ATOM     47  C4  SGN d 902     -25.201  86.035  16.565  0.00  0.00     0.095 C 
ATOM     48  O5S SGN d 902     -24.360  89.091  21.094  0.00  0.00    -0.572 OA
ATOM     49  C2  SGN d 902     -26.973  86.802  15.020  0.00  0.00     0.081 C 
ATOM     50  S2  SGN d 902     -23.791  88.452  19.890  0.00  0.00     0.251 S 
ATOM     51  O3S SGN d 902     -29.409  88.528  13.975  0.00  0.00    -0.296 OA
ATOM     52  C6  SGN d 902     -25.530  86.487  19.004  0.00  0.00     0.067 C 
ATOM     53  O3  SGN d 902     -25.002  85.709  14.192  0.00  0.00    -0.391 OA
ATOM     54  O2S SGN d 902     -27.648  88.729  12.348  0.00  0.00    -0.296 OA
ATOM     55  O6S SGN d 902     -22.919  87.330  20.285  0.00  0.00    -0.572 OA
ATOM     56  C3  SGN d 902     -25.921  85.727  15.260  0.00  0.00     0.083 C 
ATOM     57  O5  SGN d 902     -27.220  87.060  17.407  0.00  0.00    -0.349 OA
ATOM     58  O1S SGN d 902     -29.475  87.207  11.961  0.00  0.00    -0.296 OA
ATOM     59  O4S SGN d 902     -23.007  89.442  19.127  0.00  0.00    -0.572 OA
ATOM     60  O4  SGN d 902     -24.235  85.013  16.817  0.00  0.00    -0.348 OA
ATOM     61  O1  SGN d 902     -28.683  85.604  16.227  0.00  0.00    -0.348 OA
ATOM     62  H   SGN d 902     -28.654  87.627  16.082  0.00  0.00     0.131 H 
ATOM     63  H   SGN d 902     -26.654  85.108  17.818  0.00  0.00     0.090 H 
ATOM     64  H   SGN d 902     -28.364  85.772  14.018  0.00  0.00     0.140 HD
ATOM     65  H   SGN d 902     -24.709  86.983  16.495  0.00  0.00     0.091 H 
ATOM     66  H   SGN d 902     -26.495  87.755  14.930  0.00  0.00     0.076 H 
ATOM     67  H   SGN d 902     -30.034  87.917  14.396  0.00  0.00     0.231 HD
ATOM     68  H   SGN d 902     -26.215  86.392  19.821  0.00  0.00     0.080 H 
ATOM     69  H   SGN d 902     -24.686  85.855  19.186  0.00  0.00     0.080 H 
ATOM     70  H   SGN d 902     -24.335  85.023  14.351  0.00  0.00     0.210 HD
ATOM     71  H   SGN d 902     -27.111  88.251  11.697  0.00  0.00     0.231 HD
ATOM     72  H   SGN d 902     -26.387  84.766  15.322  0.00  0.00     0.089 H 
ATOM     73  H   SGN d 902     -28.938  86.727  11.311  0.00  0.00     0.231 HD
ATOM     74  O4S SGN d 904     -35.458  84.389  12.887  0.00  0.00    -0.572 OA
ATOM     75  O5S SGN d 904     -37.239  85.421  14.143  0.00  0.00    -0.572 OA
ATOM     76  C3  SGN d 904     -33.245  81.291  17.824  0.00  0.00     0.083 C 
ATOM     77  N   SGN d 904     -33.662  78.916  17.948  0.00  0.00    -0.210 NA
ATOM     78  O5  SGN d 904     -35.977  81.621  17.104  0.00  0.00    -0.350 OA
ATOM     79  O6S SGN d 904     -34.952  86.016  14.599  0.00  0.00    -0.572 OA
ATOM     80  O3S SGN d 904     -34.207  77.603  15.738  0.00  0.00    -0.296 OA
ATOM     81  O4  SGN d 904     -33.034  83.661  17.782  0.00  0.00    -0.348 OA
ATOM     82  S2  SGN d 904     -35.856  84.919  14.205  0.00  0.00     0.251 S 
ATOM     83  O1  SGN d 904     -35.692  80.434  19.119  0.00  0.00    -0.369 OA
ATOM     84  O3  SGN d 904     -31.910  81.062  17.433  0.00  0.00    -0.391 OA
ATOM     85  O2S SGN d 904     -33.196  76.346  17.538  0.00  0.00    -0.296 OA
ATOM     86  C5  SGN d 904     -35.237  82.765  17.543  0.00  0.00     0.091 C 
ATOM     87  O6  SGN d 904     -35.764  83.636  15.404  0.00  0.00    -0.254 OA
ATOM     88  O1S SGN d 904     -35.506  77.041  17.689  0.00  0.00    -0.296 OA
ATOM     89  C1  SGN d 904     -35.561  80.386  17.695  0.00  0.00     0.147 C 
ATOM     90  C4  SGN d 904     -33.758  82.580  17.201  0.00  0.00     0.095 C 
ATOM     91  C2  SGN d 904     -34.103  80.142  17.331  0.00  0.00     0.081 C 
ATOM     92  C6  SGN d 904     -35.781  83.964  16.792  0.00  0.00     0.067 C 
ATOM     93  S1  SGN d 904     -34.165  77.406  17.198  0.00  0.00     0.156 S 
ATOM     94  H   SGN d 904     -33.291  81.367  18.890  0.00  0.00     0.089 H 
ATOM     95  H   SGN d 904     -34.011  78.913  18.907  0.00  0.00     0.140 HD
ATOM     96  H   SGN d 904     -33.323  77.843  15.419  0.00  0.00     0.231 HD
ATOM     97  H   SGN d 904     -36.620  80.589  19.353  0.00  0.00     0.212 HD
ATOM     98  H   SGN d 904     -31.864  80.992  16.467  0.00  0.00     0.210 HD
ATOM     99  H   SGN d 904     -32.316  76.595  17.211  0.00  0.00     0.231 HD
ATOM    100  H   SGN d 904     -35.330  82.897  18.600  0.00  0.00     0.090 H 
ATOM    101  H   SGN d 904     -36.136  77.743  17.462  0.00  0.00     0.231 HD
ATOM    102  H   SGN d 904     -36.180  79.595  17.327  0.00  0.00     0.131 H 
ATOM    103  H   SGN d 904     -33.634  82.548  16.139  0.00  0.00     0.091 H 
ATOM    104  H   SGN d 904     -34.012  80.070  16.267  0.00  0.00     0.076 H 
ATOM    105  H   SGN d 904     -35.166  84.821  16.974  0.00  0.00     0.080 H 
ATOM    106  H   SGN d 904     -36.774  84.195  17.115  0.00  0.00     0.080 H 
ENDROOT
TORSDOF 33
ENDMDL
MODEL 37
REMARK VINA RESULT:      -7.1      4.874      9.619
REMARK  0 active torsions:
REMARK  status: ('A' for Active; 'I' for Inactive)
REMARK       I    between atoms: C3_1  and  O3_18 
REMARK       I    between atoms: O6_3  and  C6_41 
REMARK       I    between atoms: O6_3  and  S2_27 
REMARK       I    between atoms: C1_4  and  O1_67 
REMARK       I    between atoms: O2_6  and  C2_60 
REMARK       I    between atoms: O2_6  and  S_64 
REMARK       I    between atoms: C5_7  and  C6_41 
REMARK       I    between atoms: C6_9  and  C5_36 
REMARK       I    between atoms: N_10  and  C2_26 
REMARK       I    between atoms: N_10  and  S1_14 
REMARK       I    between atoms: O2_12  and  C2_39 
REMARK       I    between atoms: O2_12  and  S_34 
REMARK       I    between atoms: C3_13  and  O3_44 
REMARK       I    between atoms: S1_14  and  O1S_57 
REMARK       I    between atoms: S1_14  and  O2S_48 
REMARK       I    between atoms: S1_14  and  O3S_38 
REMARK       I    between atoms: C6_16  and  C5_68 
REMARK       I    between atoms: C4_17  and  O4_62 
REMARK       I    between atoms: N_21  and  C2_65 
REMARK       I    between atoms: N_21  and  S1_69 
REMARK       I    between atoms: C3_25  and  O3_30 
REMARK       I    between atoms: O3S_29  and  S1_69 
REMARK       I    between atoms: O4_31  and  C1_42 
REMARK       I    between atoms: O4_31  and  C4_63 
REMARK       I    between atoms: S2_35  and  O6_49 
REMARK       I    between atoms: O1_37  and  C1_61 
REMARK       I    between atoms: O2S_45  and  S1_69 
REMARK       I    between atoms: O3_46  and  C3_55 
REMARK       I    between atoms: C5_47  and  C6_66 
REMARK       I    between atoms: O6_49  and  C6_66 
REMARK       I    between atoms: O1S_52  and  S1_69 
REMARK       I    between atoms: C1_54  and  O4_62 
REMARK       I    between atoms: C4_59  and  O1_67 
ROOT
ATOM      1  C3  UAP d 901     -34.972  81.494  14.239  0.00  0.00     0.086 C 
ATOM      2  O1S UAP d 901     -38.423  84.543  14.915  0.00  0.00    -0.572 OA
ATOM      3  C6  UAP d 901     -34.399  78.731  16.576  0.00  0.00     0.233 C 
ATOM      4  O2  UAP d 901     -36.320  83.038  15.510  0.00  0.00    -0.244 OA
ATOM      5  O3  UAP d 901     -34.039  81.769  13.216  0.00  0.00    -0.389 OA
ATOM      6  O61 UAP d 901     -34.255  77.803  15.746  0.00  0.00    -0.642 OA
ATOM      7  O5  UAP d 901     -34.798  80.966  17.016  0.00  0.00    -0.311 OA
ATOM      8  O2S UAP d 901     -36.894  84.042  13.123  0.00  0.00    -0.572 OA
ATOM      9  S   UAP d 901     -37.003  84.361  14.558  0.00  0.00     0.252 S 
ATOM     10  C5  UAP d 901     -34.631  79.968  16.136  0.00  0.00     0.147 C 
ATOM     11  C2  UAP d 901     -34.978  82.622  15.272  0.00  0.00     0.135 C 
ATOM     12  O62 UAP d 901     -34.339  78.521  17.806  0.00  0.00    -0.642 OA
ATOM     13  O3S UAP d 901     -36.260  85.602  14.844  0.00  0.00    -0.572 OA
ATOM     14  C4  UAP d 901     -34.705  80.191  14.812  0.00  0.00    -0.034 C 
ATOM     15  C1  UAP d 901     -34.316  82.238  16.588  0.00  0.00     0.167 C 
ATOM     16  H   UAP d 901     -35.961  81.455  13.832  0.00  0.00     0.093 H 
ATOM     17  H   UAP d 901     -33.146  81.803  13.594  0.00  0.00     0.210 HD
ATOM     18  H   UAP d 901     -34.400  83.423  14.861  0.00  0.00     0.097 H 
ATOM     19  H   UAP d 901     -34.566  79.393  14.172  0.00  0.00     0.085 H 
ATOM     20  H   UAP d 901     -34.562  82.955  17.343  0.00  0.00     0.134 H 
ATOM     21  O1S IDS d 903     -23.847  86.802  22.020  0.00  0.00    -0.572 OA
ATOM     22  O2  IDS d 903     -25.320  85.332  20.387  0.00  0.00    -0.244 OA
ATOM     23  O5  IDS d 903     -26.157  84.143  17.109  0.00  0.00    -0.340 OA
ATOM     24  C6  IDS d 903     -28.134  84.015  15.815  0.00  0.00     0.206 C 
ATOM     25  O2S IDS d 903     -25.311  87.979  20.506  0.00  0.00    -0.572 OA
ATOM     26  C3  IDS d 903     -27.256  84.283  19.491  0.00  0.00     0.094 C 
ATOM     27  O3S IDS d 903     -26.228  86.789  22.393  0.00  0.00    -0.572 OA
ATOM     28  O3  IDS d 903     -27.969  84.611  20.664  0.00  0.00    -0.390 OA
ATOM     29  O61 IDS d 903     -29.252  84.431  15.459  0.00  0.00    -0.646 OA
ATOM     30  C1  IDS d 903     -25.349  84.880  18.040  0.00  0.00     0.161 C 
ATOM     31  C4  IDS d 903     -28.214  84.306  18.293  0.00  0.00     0.103 C 
ATOM     32  C2  IDS d 903     -26.181  85.317  19.254  0.00  0.00     0.134 C 
ATOM     33  S   IDS d 903     -25.167  86.790  21.364  0.00  0.00     0.252 S 
ATOM     34  C5  IDS d 903     -27.467  84.677  17.005  0.00  0.00     0.152 C 
ATOM     35  O62 IDS d 903     -27.534  83.083  15.231  0.00  0.00    -0.646 OA
ATOM     36  H   IDS d 903     -26.821  83.312  19.603  0.00  0.00     0.091 H 
ATOM     37  H   IDS d 903     -28.364  85.491  20.566  0.00  0.00     0.210 HD
ATOM     38  H   IDS d 903     -24.544  84.249  18.356  0.00  0.00     0.133 H 
ATOM     39  H   IDS d 903     -28.975  85.033  18.484  0.00  0.00     0.092 H 
ATOM     40  H   IDS d 903     -26.618  86.279  19.090  0.00  0.00     0.097 H 
ATOM     41  H   IDS d 903     -27.465  85.740  16.875  0.00  0.00     0.104 H 
ATOM     42  O6  SGN d 902     -33.448  84.127  19.448  0.00  0.00    -0.254 OA
ATOM     43  C1  SGN d 902     -29.719  82.602  19.113  0.00  0.00     0.150 C 
ATOM     44  C5  SGN d 902     -31.633  83.570  17.990  0.00  0.00     0.091 C 
ATOM     45  N   SGN d 902     -29.079  80.301  18.661  0.00  0.00    -0.210 NA
ATOM     46  S1  SGN d 902     -28.283  79.672  20.110  0.00  0.00     0.156 S 
ATOM     47  C4  SGN d 902     -32.170  82.178  17.651  0.00  0.00     0.095 C 
ATOM     48  O5S SGN d 902     -35.157  85.829  20.531  0.00  0.00    -0.572 OA
ATOM     49  C2  SGN d 902     -30.213  81.192  18.797  0.00  0.00     0.081 C 
ATOM     50  S2  SGN d 902     -35.127  84.590  19.730  0.00  0.00     0.251 S 
ATOM     51  O3S SGN d 902     -28.038  80.776  21.057  0.00  0.00    -0.296 OA
ATOM     52  C6  SGN d 902     -32.787  84.528  18.249  0.00  0.00     0.067 C 
ATOM     53  O3  SGN d 902     -31.485  79.916  17.209  0.00  0.00    -0.391 OA
ATOM     54  O2S SGN d 902     -29.152  78.665  20.747  0.00  0.00    -0.296 OA
ATOM     55  O6S SGN d 902     -35.796  84.816  18.435  0.00  0.00    -0.572 OA
ATOM     56  C3  SGN d 902     -31.005  81.210  17.496  0.00  0.00     0.083 C 
ATOM     57  O5  SGN d 902     -30.843  83.489  19.186  0.00  0.00    -0.349 OA
ATOM     58  O1S SGN d 902     -27.000  79.050  19.733  0.00  0.00    -0.296 OA
ATOM     59  O4S SGN d 902     -35.819  83.510  20.460  0.00  0.00    -0.572 OA
ATOM     60  O4  SGN d 902     -32.899  82.229  16.424  0.00  0.00    -0.348 OA
ATOM     61  O1  SGN d 902     -28.776  83.005  18.118  0.00  0.00    -0.348 OA
ATOM     62  H   SGN d 902     -29.222  82.627  20.060  0.00  0.00     0.131 H 
ATOM     63  H   SGN d 902     -31.045  83.923  17.168  0.00  0.00     0.090 H 
ATOM     64  H   SGN d 902     -28.369  80.804  18.127  0.00  0.00     0.140 HD
ATOM     65  H   SGN d 902     -32.815  81.848  18.438  0.00  0.00     0.091 H 
ATOM     66  H   SGN d 902     -30.841  80.848  19.592  0.00  0.00     0.076 H 
ATOM     67  H   SGN d 902     -27.466  81.439  20.640  0.00  0.00     0.231 HD
ATOM     68  H   SGN d 902     -32.412  85.524  18.360  0.00  0.00     0.080 H 
ATOM     69  H   SGN d 902     -33.473  84.506  17.428  0.00  0.00     0.080 H 
ATOM     70  H   SGN d 902     -31.988  79.935  16.380  0.00  0.00     0.210 HD
ATOM     71  H   SGN d 902     -29.315  77.938  20.126  0.00  0.00     0.231 HD
ATOM     72  H   SGN d 902     -30.377  81.526  16.690  0.00  0.00     0.089 H 
ATOM     73  H   SGN d 902     -27.164  78.324  19.111  0.00  0.00     0.231 HD
ATOM     74  O4S SGN d 904     -21.189  82.130  18.578  0.00  0.00    -0.572 OA
ATOM     75  O5S SGN d 904     -20.220  83.755  20.071  0.00  0.00    -0.572 OA
ATOM     76  C3  SGN d 904     -24.139  86.441  15.174  0.00  0.00     0.083 C 
ATOM     77  N   SGN d 904     -23.248  86.961  12.991  0.00  0.00    -0.210 NA
ATOM     78  O5  SGN d 904     -21.479  86.584  16.171  0.00  0.00    -0.350 OA
ATOM     79  O6S SGN d 904     -22.600  83.397  20.074  0.00  0.00    -0.572 OA
ATOM     80  O3S SGN d 904     -21.710  85.202  11.792  0.00  0.00    -0.296 OA
ATOM     81  O4  SGN d 904     -24.868  86.063  17.407  0.00  0.00    -0.348 OA
ATOM     82  S2  SGN d 904     -21.387  83.437  19.233  0.00  0.00     0.251 S 
ATOM     83  O1  SGN d 904     -22.136  88.530  15.015  0.00  0.00    -0.369 OA
ATOM     84  O3  SGN d 904     -25.175  85.678  14.597  0.00  0.00    -0.391 OA
ATOM     85  O2S SGN d 904     -22.942  86.723  10.375  0.00  0.00    -0.296 OA
ATOM     86  C5  SGN d 904     -22.567  86.634  17.100  0.00  0.00     0.091 C 
ATOM     87  O6  SGN d 904     -21.574  84.684  18.008  0.00  0.00    -0.254 OA
ATOM     88  O1S SGN d 904     -21.043  87.513  11.645  0.00  0.00    -0.296 OA
ATOM     89  C1  SGN d 904     -21.770  87.152  14.891  0.00  0.00     0.147 C 
ATOM     90  C4  SGN d 904     -23.761  85.867  16.531  0.00  0.00     0.095 C 
ATOM     91  C2  SGN d 904     -22.924  86.378  14.269  0.00  0.00     0.081 C 
ATOM     92  C6  SGN d 904     -22.097  85.960  18.374  0.00  0.00     0.067 C 
ATOM     93  S1  SGN d 904     -22.189  86.587  11.638  0.00  0.00     0.156 S 
ATOM     94  H   SGN d 904     -24.470  87.451  15.293  0.00  0.00     0.089 H 
ATOM     95  H   SGN d 904     -23.249  87.975  13.109  0.00  0.00     0.140 HD
ATOM     96  H   SGN d 904     -22.467  84.595  11.786  0.00  0.00     0.231 HD
ATOM     97  H   SGN d 904     -21.402  89.024  15.411  0.00  0.00     0.212 HD
ATOM     98  H   SGN d 904     -24.879  84.762  14.487  0.00  0.00     0.210 HD
ATOM     99  H   SGN d 904     -23.694  86.110  10.380  0.00  0.00     0.231 HD
ATOM    100  H   SGN d 904     -22.865  87.644  17.286  0.00  0.00     0.090 H 
ATOM    101  H   SGN d 904     -20.554  87.417  12.478  0.00  0.00     0.231 HD
ATOM    102  H   SGN d 904     -20.898  87.091  14.273  0.00  0.00     0.131 H 
ATOM    103  H   SGN d 904     -23.513  84.831  16.434  0.00  0.00     0.091 H 
ATOM    104  H   SGN d 904     -22.635  85.356  14.141  0.00  0.00     0.076 H 
ATOM    105  H   SGN d 904     -22.918  85.839  19.050  0.00  0.00     0.080 H 
ATOM    106  H   SGN d 904     -21.351  86.550  18.863  0.00  0.00     0.080 H 
ENDROOT
TORSDOF 33
ENDMDL
MODEL 38
REMARK VINA RESULT:      -7.1      5.771     12.913
REMARK  0 active torsions:
REMARK  status: ('A' for Active; 'I' for Inactive)
REMARK       I    between atoms: C3_1  and  O3_18 
REMARK       I    between atoms: O6_3  and  C6_41 
REMARK       I    between atoms: O6_3  and  S2_27 
REMARK       I    between atoms: C1_4  and  O1_67 
REMARK       I    between atoms: O2_6  and  C2_60 
REMARK       I    between atoms: O2_6  and  S_64 
REMARK       I    between atoms: C5_7  and  C6_41 
REMARK       I    between atoms: C6_9  and  C5_36 
REMARK       I    between atoms: N_10  and  C2_26 
REMARK       I    between atoms: N_10  and  S1_14 
REMARK       I    between atoms: O2_12  and  C2_39 
REMARK       I    between atoms: O2_12  and  S_34 
REMARK       I    between atoms: C3_13  and  O3_44 
REMARK       I    between atoms: S1_14  and  O1S_57 
REMARK       I    between atoms: S1_14  and  O2S_48 
REMARK       I    between atoms: S1_14  and  O3S_38 
REMARK       I    between atoms: C6_16  and  C5_68 
REMARK       I    between atoms: C4_17  and  O4_62 
REMARK       I    between atoms: N_21  and  C2_65 
REMARK       I    between atoms: N_21  and  S1_69 
REMARK       I    between atoms: C3_25  and  O3_30 
REMARK       I    between atoms: O3S_29  and  S1_69 
REMARK       I    between atoms: O4_31  and  C1_42 
REMARK       I    between atoms: O4_31  and  C4_63 
REMARK       I    between atoms: S2_35  and  O6_49 
REMARK       I    between atoms: O1_37  and  C1_61 
REMARK       I    between atoms: O2S_45  and  S1_69 
REMARK       I    between atoms: O3_46  and  C3_55 
REMARK       I    between atoms: C5_47  and  C6_66 
REMARK       I    between atoms: O6_49  and  C6_66 
REMARK       I    between atoms: O1S_52  and  S1_69 
REMARK       I    between atoms: C1_54  and  O4_62 
REMARK       I    between atoms: C4_59  and  O1_67 
ROOT
ATOM      1  C3  UAP d 901     -25.688  87.206  15.094  0.00  0.00     0.086 C 
ATOM      2  O1S UAP d 901     -22.480  86.790  11.748  0.00  0.00    -0.572 OA
ATOM      3  C6  UAP d 901     -24.836  88.600  18.374  0.00  0.00     0.233 C 
ATOM      4  O2  UAP d 901     -23.547  86.591  14.169  0.00  0.00    -0.244 OA
ATOM      5  O3  UAP d 901     -26.949  86.610  14.877  0.00  0.00    -0.389 OA
ATOM      6  O61 UAP d 901     -25.805  89.382  18.508  0.00  0.00    -0.642 OA
ATOM      7  O5  UAP d 901     -23.709  87.022  17.112  0.00  0.00    -0.311 OA
ATOM      8  O2S UAP d 901     -24.875  86.576  11.873  0.00  0.00    -0.572 OA
ATOM      9  S   UAP d 901     -23.595  86.140  12.461  0.00  0.00     0.252 S 
ATOM     10  C5  UAP d 901     -24.749  87.854  17.272  0.00  0.00     0.147 C 
ATOM     11  C2  UAP d 901     -24.584  86.149  15.041  0.00  0.00     0.135 C 
ATOM     12  O62 UAP d 901     -23.943  88.511  19.244  0.00  0.00    -0.642 OA
ATOM     13  O3S UAP d 901     -23.472  84.676  12.339  0.00  0.00    -0.572 OA
ATOM     14  C4  UAP d 901     -25.704  87.959  16.331  0.00  0.00    -0.034 C 
ATOM     15  C1  UAP d 901     -24.000  85.818  16.408  0.00  0.00     0.167 C 
ATOM     16  H   UAP d 901     -25.472  87.904  14.312  0.00  0.00     0.093 H 
ATOM     17  H   UAP d 901     -27.136  85.980  15.590  0.00  0.00     0.210 HD
ATOM     18  H   UAP d 901     -25.031  85.250  14.673  0.00  0.00     0.097 H 
ATOM     19  H   UAP d 901     -26.488  88.609  16.499  0.00  0.00     0.085 H 
ATOM     20  H   UAP d 901     -23.086  85.274  16.292  0.00  0.00     0.134 H 
ATOM     21  O1S IDS d 903     -24.354  75.001  22.953  0.00  0.00    -0.572 OA
ATOM     22  O2  IDS d 903     -25.200  77.322  22.004  0.00  0.00    -0.244 OA
ATOM     23  O5  IDS d 903     -27.635  79.329  20.302  0.00  0.00    -0.340 OA
ATOM     24  C6  IDS d 903     -27.599  80.848  18.487  0.00  0.00     0.206 C 
ATOM     25  O2S IDS d 903     -24.452  75.233  20.553  0.00  0.00    -0.572 OA
ATOM     26  C3  IDS d 903     -25.099  79.462  20.975  0.00  0.00     0.094 C 
ATOM     27  O3S IDS d 903     -22.741  76.379  21.809  0.00  0.00    -0.572 OA
ATOM     28  O3  IDS d 903     -23.691  79.429  21.058  0.00  0.00    -0.390 OA
ATOM     29  O61 IDS d 903     -27.158  81.260  17.399  0.00  0.00    -0.646 OA
ATOM     30  C1  IDS d 903     -27.161  78.105  20.884  0.00  0.00     0.161 C 
ATOM     31  C4  IDS d 903     -25.514  80.232  19.714  0.00  0.00     0.103 C 
ATOM     32  C2  IDS d 903     -25.627  78.051  20.859  0.00  0.00     0.134 C 
ATOM     33  S   IDS d 903     -24.146  75.921  21.820  0.00  0.00     0.252 S 
ATOM     34  C5  IDS d 903     -26.859  79.721  19.181  0.00  0.00     0.152 C 
ATOM     35  O62 IDS d 903     -28.627  81.315  19.030  0.00  0.00    -0.646 OA
ATOM     36  H   IDS d 903     -25.493  79.936  21.848  0.00  0.00     0.091 H 
ATOM     37  H   IDS d 903     -23.331  78.999  20.267  0.00  0.00     0.210 HD
ATOM     38  H   IDS d 903     -27.512  78.056  21.893  0.00  0.00     0.133 H 
ATOM     39  H   IDS d 903     -24.760  80.091  18.969  0.00  0.00     0.092 H 
ATOM     40  H   IDS d 903     -25.275  77.594  19.958  0.00  0.00     0.097 H 
ATOM     41  H   IDS d 903     -26.699  78.915  18.495  0.00  0.00     0.104 H 
ATOM     42  O6  SGN d 902     -21.740  83.319  17.481  0.00  0.00    -0.254 OA
ATOM     43  C1  SGN d 902     -24.452  82.321  20.307  0.00  0.00     0.150 C 
ATOM     44  C5  SGN d 902     -24.043  82.918  17.997  0.00  0.00     0.091 C 
ATOM     45  N   SGN d 902     -25.738  83.807  21.738  0.00  0.00    -0.210 NA
ATOM     46  S1  SGN d 902     -25.184  83.562  23.400  0.00  0.00     0.156 S 
ATOM     47  C4  SGN d 902     -24.360  84.385  18.293  0.00  0.00     0.095 C 
ATOM     48  O5S SGN d 902     -19.510  82.832  16.147  0.00  0.00    -0.572 OA
ATOM     49  C2  SGN d 902     -24.780  83.772  20.652  0.00  0.00     0.081 C 
ATOM     50  S2  SGN d 902     -20.470  83.920  16.413  0.00  0.00     0.251 S 
ATOM     51  O3S SGN d 902     -24.293  82.388  23.456  0.00  0.00    -0.296 OA
ATOM     52  C6  SGN d 902     -22.959  82.821  16.933  0.00  0.00     0.067 C 
ATOM     53  O3  SGN d 902     -25.653  85.811  19.733  0.00  0.00    -0.391 OA
ATOM     54  O2S SGN d 902     -24.447  84.756  23.851  0.00  0.00    -0.296 OA
ATOM     55  O6S SGN d 902     -21.072  84.375  15.145  0.00  0.00    -0.572 OA
ATOM     56  C3  SGN d 902     -25.370  84.464  19.430  0.00  0.00     0.083 C 
ATOM     57  O5  SGN d 902     -23.550  82.293  19.193  0.00  0.00    -0.349 OA
ATOM     58  O1S SGN d 902     -26.349  83.340  24.277  0.00  0.00    -0.296 OA
ATOM     59  O4S SGN d 902     -19.776  85.048  17.062  0.00  0.00    -0.572 OA
ATOM     60  O4  SGN d 902     -24.918  85.000  17.132  0.00  0.00    -0.348 OA
ATOM     61  O1  SGN d 902     -25.665  81.614  20.040  0.00  0.00    -0.348 OA
ATOM     62  H   SGN d 902     -23.969  81.835  21.129  0.00  0.00     0.131 H 
ATOM     63  H   SGN d 902     -24.934  82.434  17.654  0.00  0.00     0.090 H 
ATOM     64  H   SGN d 902     -26.430  83.082  21.547  0.00  0.00     0.140 HD
ATOM     65  H   SGN d 902     -23.459  84.891  18.570  0.00  0.00     0.091 H 
ATOM     66  H   SGN d 902     -23.886  84.277  20.952  0.00  0.00     0.076 H 
ATOM     67  H   SGN d 902     -24.777  81.600  23.160  0.00  0.00     0.231 HD
ATOM     68  H   SGN d 902     -22.832  81.799  16.639  0.00  0.00     0.080 H 
ATOM     69  H   SGN d 902     -23.237  83.395  16.073  0.00  0.00     0.080 H 
ATOM     70  H   SGN d 902     -26.028  86.246  18.951  0.00  0.00     0.210 HD
ATOM     71  H   SGN d 902     -25.031  85.530  23.815  0.00  0.00     0.231 HD
ATOM     72  H   SGN d 902     -26.280  83.982  19.141  0.00  0.00     0.089 H 
ATOM     73  H   SGN d 902     -26.934  84.114  24.239  0.00  0.00     0.231 HD
ATOM     74  O4S SGN d 904     -29.723  77.647  25.171  0.00  0.00    -0.572 OA
ATOM     75  O5S SGN d 904     -28.669  75.534  25.660  0.00  0.00    -0.572 OA
ATOM     76  C3  SGN d 904     -29.720  76.667  19.014  0.00  0.00     0.083 C 
ATOM     77  N   SGN d 904     -31.818  76.110  17.957  0.00  0.00    -0.210 NA
ATOM     78  O5  SGN d 904     -30.367  74.778  21.040  0.00  0.00    -0.350 OA
ATOM     79  O6S SGN d 904     -27.437  77.246  24.499  0.00  0.00    -0.572 OA
ATOM     80  O3S SGN d 904     -34.061  76.766  19.158  0.00  0.00    -0.296 OA
ATOM     81  O4  SGN d 904     -27.636  77.006  20.111  0.00  0.00    -0.348 OA
ATOM     82  S2  SGN d 904     -28.767  76.633  24.685  0.00  0.00     0.251 S 
ATOM     83  O1  SGN d 904     -30.437  73.862  18.869  0.00  0.00    -0.369 OA
ATOM     84  O3  SGN d 904     -29.793  77.986  18.522  0.00  0.00    -0.391 OA
ATOM     85  O2S SGN d 904     -34.125  76.573  16.750  0.00  0.00    -0.296 OA
ATOM     86  C5  SGN d 904     -29.013  75.230  20.925  0.00  0.00     0.091 C 
ATOM     87  O6  SGN d 904     -29.326  75.990  23.147  0.00  0.00    -0.254 OA
ATOM     88  O1S SGN d 904     -33.973  74.590  18.124  0.00  0.00    -0.296 OA
ATOM     89  C1  SGN d 904     -31.081  74.736  19.801  0.00  0.00     0.147 C 
ATOM     90  C4  SGN d 904     -28.994  76.647  20.350  0.00  0.00     0.095 C 
ATOM     91  C2  SGN d 904     -31.128  76.144  19.222  0.00  0.00     0.081 C 
ATOM     92  C6  SGN d 904     -28.429  75.247  22.324  0.00  0.00     0.067 C 
ATOM     93  S1  SGN d 904     -33.574  76.003  17.995  0.00  0.00     0.156 S 
ATOM     94  H   SGN d 904     -29.190  76.059  18.310  0.00  0.00     0.089 H 
ATOM     95  H   SGN d 904     -31.473  75.301  17.441  0.00  0.00     0.140 HD
ATOM     96  H   SGN d 904     -33.796  77.695  19.069  0.00  0.00     0.231 HD
ATOM     97  H   SGN d 904     -30.406  72.965  19.236  0.00  0.00     0.212 HD
ATOM     98  H   SGN d 904     -30.272  78.541  19.156  0.00  0.00     0.210 HD
ATOM     99  H   SGN d 904     -33.857  77.503  16.673  0.00  0.00     0.231 HD
ATOM    100  H   SGN d 904     -28.449  74.590  20.280  0.00  0.00     0.090 H 
ATOM    101  H   SGN d 904     -33.606  74.224  18.945  0.00  0.00     0.231 HD
ATOM    102  H   SGN d 904     -32.070  74.368  19.978  0.00  0.00     0.131 H 
ATOM    103  H   SGN d 904     -29.466  77.321  21.033  0.00  0.00     0.091 H 
ATOM    104  H   SGN d 904     -31.643  76.789  19.903  0.00  0.00     0.076 H 
ATOM    105  H   SGN d 904     -27.467  75.717  22.314  0.00  0.00     0.080 H 
ATOM    106  H   SGN d 904     -28.307  74.252  22.697  0.00  0.00     0.080 H 
ENDROOT
TORSDOF 33
ENDMDL
MODEL 39
REMARK VINA RESULT:      -7.0      4.619      9.099
REMARK  0 active torsions:
REMARK  status: ('A' for Active; 'I' for Inactive)
REMARK       I    between atoms: C3_1  and  O3_18 
REMARK       I    between atoms: O6_3  and  C6_41 
REMARK       I    between atoms: O6_3  and  S2_27 
REMARK       I    between atoms: C1_4  and  O1_67 
REMARK       I    between atoms: O2_6  and  C2_60 
REMARK       I    between atoms: O2_6  and  S_64 
REMARK       I    between atoms: C5_7  and  C6_41 
REMARK       I    between atoms: C6_9  and  C5_36 
REMARK       I    between atoms: N_10  and  C2_26 
REMARK       I    between atoms: N_10  and  S1_14 
REMARK       I    between atoms: O2_12  and  C2_39 
REMARK       I    between atoms: O2_12  and  S_34 
REMARK       I    between atoms: C3_13  and  O3_44 
REMARK       I    between atoms: S1_14  and  O1S_57 
REMARK       I    between atoms: S1_14  and  O2S_48 
REMARK       I    between atoms: S1_14  and  O3S_38 
REMARK       I    between atoms: C6_16  and  C5_68 
REMARK       I    between atoms: C4_17  and  O4_62 
REMARK       I    between atoms: N_21  and  C2_65 
REMARK       I    between atoms: N_21  and  S1_69 
REMARK       I    between atoms: C3_25  and  O3_30 
REMARK       I    between atoms: O3S_29  and  S1_69 
REMARK       I    between atoms: O4_31  and  C1_42 
REMARK       I    between atoms: O4_31  and  C4_63 
REMARK       I    between atoms: S2_35  and  O6_49 
REMARK       I    between atoms: O1_37  and  C1_61 
REMARK       I    between atoms: O2S_45  and  S1_69 
REMARK       I    between atoms: O3_46  and  C3_55 
REMARK       I    between atoms: C5_47  and  C6_66 
REMARK       I    between atoms: O6_49  and  C6_66 
REMARK       I    between atoms: O1S_52  and  S1_69 
REMARK       I    between atoms: C1_54  and  O4_62 
REMARK       I    between atoms: C4_59  and  O1_67 
ROOT
ATOM      1  C3  UAP d 901     -37.046  80.921  18.471  0.00  0.00     0.086 C 
ATOM      2  O1S UAP d 901     -39.096  84.201  21.059  0.00  0.00    -0.572 OA
ATOM      3  C6  UAP d 901     -36.777  77.465  19.656  0.00  0.00     0.233 C 
ATOM      4  O2  UAP d 901     -37.482  82.176  20.485  0.00  0.00    -0.244 OA
ATOM      5  O3  UAP d 901     -36.367  81.331  17.303  0.00  0.00    -0.389 OA
ATOM      6  O61 UAP d 901     -37.142  76.874  18.614  0.00  0.00    -0.642 OA
ATOM      7  O5  UAP d 901     -36.341  79.439  20.780  0.00  0.00    -0.311 OA
ATOM      8  O2S UAP d 901     -38.307  84.043  18.790  0.00  0.00    -0.572 OA
ATOM      9  S   UAP d 901     -37.943  83.859  20.207  0.00  0.00     0.252 S 
ATOM     10  C5  UAP d 901     -36.720  78.797  19.665  0.00  0.00     0.147 C 
ATOM     11  C2  UAP d 901     -36.441  81.595  19.703  0.00  0.00     0.135 C 
ATOM     12  O62 UAP d 901     -36.473  76.834  20.691  0.00  0.00    -0.642 OA
ATOM     13  O3S UAP d 901     -36.806  84.738  20.540  0.00  0.00    -0.572 OA
ATOM     14  C4  UAP d 901     -37.057  79.475  18.553  0.00  0.00    -0.034 C 
ATOM     15  C1  UAP d 901     -35.617  80.648  20.565  0.00  0.00     0.167 C 
ATOM     16  H   UAP d 901     -38.068  81.235  18.430  0.00  0.00     0.093 H 
ATOM     17  H   UAP d 901     -35.442  81.042  17.350  0.00  0.00     0.210 HD
ATOM     18  H   UAP d 901     -35.769  82.348  19.348  0.00  0.00     0.097 H 
ATOM     19  H   UAP d 901     -37.338  78.939  17.718  0.00  0.00     0.085 H 
ATOM     20  H   UAP d 901     -35.429  81.094  21.520  0.00  0.00     0.134 H 
ATOM     21  O1S IDS d 903     -23.230  80.729  23.115  0.00  0.00    -0.572 OA
ATOM     22  O2  IDS d 903     -25.450  80.262  21.754  0.00  0.00    -0.244 OA
ATOM     23  O5  IDS d 903     -27.419  80.488  18.765  0.00  0.00    -0.340 OA
ATOM     24  C6  IDS d 903     -29.600  81.237  18.235  0.00  0.00     0.206 C 
ATOM     25  O2S IDS d 903     -24.595  82.638  22.557  0.00  0.00    -0.572 OA
ATOM     26  C3  IDS d 903     -27.776  80.022  21.326  0.00  0.00     0.094 C 
ATOM     27  O3S IDS d 903     -25.321  81.090  24.258  0.00  0.00    -0.572 OA
ATOM     28  O3  IDS d 903     -28.029  80.065  22.714  0.00  0.00    -0.390 OA
ATOM     29  O61 IDS d 903     -30.588  81.976  18.404  0.00  0.00    -0.646 OA
ATOM     30  C1  IDS d 903     -26.213  80.668  19.526  0.00  0.00     0.161 C 
ATOM     31  C4  IDS d 903     -28.952  80.661  20.576  0.00  0.00     0.103 C 
ATOM     32  C2  IDS d 903     -26.532  80.823  21.020  0.00  0.00     0.134 C 
ATOM     33  S   IDS d 903     -24.611  81.223  22.969  0.00  0.00     0.252 S 
ATOM     34  C5  IDS d 903     -28.482  81.289  19.258  0.00  0.00     0.152 C 
ATOM     35  O62 IDS d 903     -29.486  80.461  17.259  0.00  0.00    -0.646 OA
ATOM     36  H   IDS d 903     -27.648  79.004  21.023  0.00  0.00     0.091 H 
ATOM     37  H   IDS d 903     -28.145  80.987  22.992  0.00  0.00     0.210 HD
ATOM     38  H   IDS d 903     -25.590  79.813  19.371  0.00  0.00     0.133 H 
ATOM     39  H   IDS d 903     -29.377  81.419  21.200  0.00  0.00     0.092 H 
ATOM     40  H   IDS d 903     -26.678  81.851  21.275  0.00  0.00     0.097 H 
ATOM     41  H   IDS d 903     -28.185  82.305  19.420  0.00  0.00     0.104 H 
ATOM     42  O6  SGN d 902     -33.510  81.200  23.351  0.00  0.00    -0.254 OA
ATOM     43  C1  SGN d 902     -30.648  79.136  21.378  0.00  0.00     0.150 C 
ATOM     44  C5  SGN d 902     -32.390  80.814  21.270  0.00  0.00     0.091 C 
ATOM     45  N   SGN d 902     -30.886  77.055  20.145  0.00  0.00    -0.210 NA
ATOM     46  S1  SGN d 902     -29.980  75.810  21.017  0.00  0.00     0.156 S 
ATOM     47  C4  SGN d 902     -33.398  79.773  20.779  0.00  0.00     0.095 C 
ATOM     48  O5S SGN d 902     -34.276  82.741  25.358  0.00  0.00    -0.572 OA
ATOM     49  C2  SGN d 902     -31.615  78.061  20.888  0.00  0.00     0.081 C 
ATOM     50  S2  SGN d 902     -34.835  81.880  24.298  0.00  0.00     0.251 S 
ATOM     51  O3S SGN d 902     -29.175  76.439  22.079  0.00  0.00    -0.296 OA
ATOM     52  C6  SGN d 902     -33.087  81.843  22.150  0.00  0.00     0.067 C 
ATOM     53  O3  SGN d 902     -33.579  77.715  19.550  0.00  0.00    -0.391 OA
ATOM     54  O2S SGN d 902     -30.925  74.852  21.621  0.00  0.00    -0.296 OA
ATOM     55  O6S SGN d 902     -35.708  82.677  23.416  0.00  0.00    -0.572 OA
ATOM     56  C3  SGN d 902     -32.667  78.696  19.988  0.00  0.00     0.083 C 
ATOM     57  O5  SGN d 902     -31.386  80.159  22.061  0.00  0.00    -0.349 OA
ATOM     58  O1S SGN d 902     -29.092  75.102  20.076  0.00  0.00    -0.296 OA
ATOM     59  O4S SGN d 902     -35.615  80.785  24.907  0.00  0.00    -0.572 OA
ATOM     60  O4  SGN d 902     -34.363  80.398  19.933  0.00  0.00    -0.348 OA
ATOM     61  O1  SGN d 902     -29.912  79.650  20.266  0.00  0.00    -0.348 OA
ATOM     62  H   SGN d 902     -29.944  78.726  22.070  0.00  0.00     0.131 H 
ATOM     63  H   SGN d 902     -31.952  81.297  20.422  0.00  0.00     0.090 H 
ATOM     64  H   SGN d 902     -30.216  77.550  19.555  0.00  0.00     0.140 HD
ATOM     65  H   SGN d 902     -33.890  79.334  21.622  0.00  0.00     0.091 H 
ATOM     66  H   SGN d 902     -32.094  77.603  21.729  0.00  0.00     0.076 H 
ATOM     67  H   SGN d 902     -28.552  77.069  21.684  0.00  0.00     0.231 HD
ATOM     68  H   SGN d 902     -32.407  82.636  22.385  0.00  0.00     0.080 H 
ATOM     69  H   SGN d 902     -33.931  82.253  21.635  0.00  0.00     0.080 H 
ATOM     70  H   SGN d 902     -34.246  78.125  18.978  0.00  0.00     0.210 HD
ATOM     71  H   SGN d 902     -31.456  74.437  20.923  0.00  0.00     0.231 HD
ATOM     72  H   SGN d 902     -32.200  79.132  19.130  0.00  0.00     0.089 H 
ATOM     73  H   SGN d 902     -29.624  74.688  19.378  0.00  0.00     0.231 HD
ATOM     74  O4S SGN d 904     -23.111  77.091  17.871  0.00  0.00    -0.572 OA
ATOM     75  O5S SGN d 904     -21.342  77.855  19.319  0.00  0.00    -0.572 OA
ATOM     76  C3  SGN d 904     -25.354  82.834  16.939  0.00  0.00     0.083 C 
ATOM     77  N   SGN d 904     -24.934  83.879  14.804  0.00  0.00    -0.210 NA
ATOM     78  O5  SGN d 904     -22.618  82.058  16.974  0.00  0.00    -0.350 OA
ATOM     79  O6S SGN d 904     -23.633  78.029  20.036  0.00  0.00    -0.572 OA
ATOM     80  O3S SGN d 904     -24.372  82.362  12.734  0.00  0.00    -0.296 OA
ATOM     81  O4  SGN d 904     -25.569  81.868  19.104  0.00  0.00    -0.348 OA
ATOM     82  S2  SGN d 904     -22.723  78.100  18.876  0.00  0.00     0.251 S 
ATOM     83  O1  SGN d 904     -22.915  84.375  16.667  0.00  0.00    -0.369 OA
ATOM     84  O3  SGN d 904     -26.686  82.556  16.570  0.00  0.00    -0.391 OA
ATOM     85  O2S SGN d 904     -25.393  84.503  12.276  0.00  0.00    -0.296 OA
ATOM     86  C5  SGN d 904     -23.363  82.011  18.195  0.00  0.00     0.091 C 
ATOM     87  O6  SGN d 904     -22.822  79.705  18.163  0.00  0.00    -0.254 OA
ATOM     88  O1S SGN d 904     -23.086  84.384  12.985  0.00  0.00    -0.296 OA
ATOM     89  C1  SGN d 904     -23.036  83.083  16.067  0.00  0.00     0.147 C 
ATOM     90  C4  SGN d 904     -24.839  81.759  17.885  0.00  0.00     0.095 C 
ATOM     91  C2  SGN d 904     -24.491  82.834  15.693  0.00  0.00     0.081 C 
ATOM     92  C6  SGN d 904     -22.815  80.854  19.007  0.00  0.00     0.067 C 
ATOM     93  S1  SGN d 904     -24.423  83.782  13.123  0.00  0.00     0.156 S 
ATOM     94  H   SGN d 904     -25.316  83.786  17.427  0.00  0.00     0.089 H 
ATOM     95  H   SGN d 904     -24.592  84.764  15.178  0.00  0.00     0.140 HD
ATOM     96  H   SGN d 904     -25.254  81.969  12.826  0.00  0.00     0.231 HD
ATOM     97  H   SGN d 904     -21.989  84.536  16.906  0.00  0.00     0.212 HD
ATOM     98  H   SGN d 904     -26.725  81.694  16.128  0.00  0.00     0.210 HD
ATOM     99  H   SGN d 904     -26.271  84.100  12.373  0.00  0.00     0.231 HD
ATOM    100  H   SGN d 904     -23.277  82.933  18.731  0.00  0.00     0.090 H 
ATOM    101  H   SGN d 904     -22.455  83.905  13.545  0.00  0.00     0.231 HD
ATOM    102  H   SGN d 904     -22.413  83.057  15.197  0.00  0.00     0.131 H 
ATOM    103  H   SGN d 904     -24.955  80.794  17.439  0.00  0.00     0.091 H 
ATOM    104  H   SGN d 904     -24.574  81.883  15.210  0.00  0.00     0.076 H 
ATOM    105  H   SGN d 904     -23.433  80.683  19.864  0.00  0.00     0.080 H 
ATOM    106  H   SGN d 904     -21.825  81.067  19.351  0.00  0.00     0.080 H 
ENDROOT
TORSDOF 33
ENDMDL
MODEL 40
REMARK VINA RESULT:      -7.0      5.194      9.795
REMARK  0 active torsions:
REMARK  status: ('A' for Active; 'I' for Inactive)
REMARK       I    between atoms: C3_1  and  O3_18 
REMARK       I    between atoms: O6_3  and  C6_41 
REMARK       I    between atoms: O6_3  and  S2_27 
REMARK       I    between atoms: C1_4  and  O1_67 
REMARK       I    between atoms: O2_6  and  C2_60 
REMARK       I    between atoms: O2_6  and  S_64 
REMARK       I    between atoms: C5_7  and  C6_41 
REMARK       I    between atoms: C6_9  and  C5_36 
REMARK       I    between atoms: N_10  and  C2_26 
REMARK       I    between atoms: N_10  and  S1_14 
REMARK       I    between atoms: O2_12  and  C2_39 
REMARK       I    between atoms: O2_12  and  S_34 
REMARK       I    between atoms: C3_13  and  O3_44 
REMARK       I    between atoms: S1_14  and  O1S_57 
REMARK       I    between atoms: S1_14  and  O2S_48 
REMARK       I    between atoms: S1_14  and  O3S_38 
REMARK       I    between atoms: C6_16  and  C5_68 
REMARK       I    between atoms: C4_17  and  O4_62 
REMARK       I    between atoms: N_21  and  C2_65 
REMARK       I    between atoms: N_21  and  S1_69 
REMARK       I    between atoms: C3_25  and  O3_30 
REMARK       I    between atoms: O3S_29  and  S1_69 
REMARK       I    between atoms: O4_31  and  C1_42 
REMARK       I    between atoms: O4_31  and  C4_63 
REMARK       I    between atoms: S2_35  and  O6_49 
REMARK       I    between atoms: O1_37  and  C1_61 
REMARK       I    between atoms: O2S_45  and  S1_69 
REMARK       I    between atoms: O3_46  and  C3_55 
REMARK       I    between atoms: C5_47  and  C6_66 
REMARK       I    between atoms: O6_49  and  C6_66 
REMARK       I    between atoms: O1S_52  and  S1_69 
REMARK       I    between atoms: C1_54  and  O4_62 
REMARK       I    between atoms: C4_59  and  O1_67 
ROOT
ATOM      1  C3  UAP d 901     -20.865  80.165  20.105  0.00  0.00     0.086 C 
ATOM      2  O1S UAP d 901     -19.501  81.196  24.434  0.00  0.00    -0.572 OA
ATOM      3  C6  UAP d 901     -20.610  82.624  17.401  0.00  0.00     0.233 C 
ATOM      4  O2  UAP d 901     -20.731  81.509  22.104  0.00  0.00    -0.244 OA
ATOM      5  O3  UAP d 901     -21.551  78.949  19.902  0.00  0.00    -0.389 OA
ATOM      6  O61 UAP d 901     -20.107  81.890  16.520  0.00  0.00    -0.642 OA
ATOM      7  O5  UAP d 901     -21.415  82.889  19.554  0.00  0.00    -0.311 OA
ATOM      8  O2S UAP d 901     -20.153  79.194  23.265  0.00  0.00    -0.572 OA
ATOM      9  S   UAP d 901     -20.543  80.578  23.595  0.00  0.00     0.252 S 
ATOM     10  C5  UAP d 901     -20.886  82.108  18.599  0.00  0.00     0.147 C 
ATOM     11  C2  UAP d 901     -21.626  81.046  21.096  0.00  0.00     0.135 C 
ATOM     12  O62 UAP d 901     -20.849  83.832  17.186  0.00  0.00    -0.642 OA
ATOM     13  O3S UAP d 901     -21.823  80.566  24.327  0.00  0.00    -0.572 OA
ATOM     14  C4  UAP d 901     -20.618  80.811  18.833  0.00  0.00    -0.034 C 
ATOM     15  C1  UAP d 901     -22.319  82.233  20.440  0.00  0.00     0.167 C 
ATOM     16  H   UAP d 901     -19.908  79.977  20.546  0.00  0.00     0.093 H 
ATOM     17  H   UAP d 901     -22.416  79.129  19.503  0.00  0.00     0.210 HD
ATOM     18  H   UAP d 901     -22.398  80.441  21.523  0.00  0.00     0.097 H 
ATOM     19  H   UAP d 901     -20.216  80.248  18.067  0.00  0.00     0.085 H 
ATOM     20  H   UAP d 901     -22.620  82.939  21.186  0.00  0.00     0.134 H 
ATOM     21  O1S IDS d 903     -34.648  84.862  19.418  0.00  0.00    -0.572 OA
ATOM     22  O2  IDS d 903     -32.324  83.738  18.836  0.00  0.00    -0.244 OA
ATOM     23  O5  IDS d 903     -30.291  80.854  18.200  0.00  0.00    -0.340 OA
ATOM     24  C6  IDS d 903     -28.243  80.015  19.038  0.00  0.00     0.206 C 
ATOM     25  O2S IDS d 903     -33.594  83.561  21.155  0.00  0.00    -0.572 OA
ATOM     26  C3  IDS d 903     -29.974  83.381  18.845  0.00  0.00     0.094 C 
ATOM     27  O3S IDS d 903     -32.697  85.715  20.547  0.00  0.00    -0.572 OA
ATOM     28  O3  IDS d 903     -29.792  84.632  19.473  0.00  0.00    -0.390 OA
ATOM     29  O61 IDS d 903     -27.400  79.854  19.940  0.00  0.00    -0.646 OA
ATOM     30  C1  IDS d 903     -31.542  81.512  18.458  0.00  0.00     0.161 C 
ATOM     31  C4  IDS d 903     -28.888  82.409  19.327  0.00  0.00     0.103 C 
ATOM     32  C2  IDS d 903     -31.318  82.815  19.238  0.00  0.00     0.134 C 
ATOM     33  S   IDS d 903     -33.363  84.497  20.041  0.00  0.00     0.252 S 
ATOM     34  C5  IDS d 903     -29.398  80.963  19.297  0.00  0.00     0.152 C 
ATOM     35  O62 IDS d 903     -28.184  79.428  17.934  0.00  0.00    -0.646 OA
ATOM     36  H   IDS d 903     -29.918  83.507  17.785  0.00  0.00     0.091 H 
ATOM     37  H   IDS d 903     -29.842  84.521  20.434  0.00  0.00     0.210 HD
ATOM     38  H   IDS d 903     -32.008  81.723  17.518  0.00  0.00     0.133 H 
ATOM     39  H   IDS d 903     -28.622  82.672  20.330  0.00  0.00     0.092 H 
ATOM     40  H   IDS d 903     -31.356  82.640  20.292  0.00  0.00     0.097 H 
ATOM     41  H   IDS d 903     -29.865  80.719  20.229  0.00  0.00     0.104 H 
ATOM     42  O6  SGN d 902     -24.608  84.628  21.677  0.00  0.00    -0.254 OA
ATOM     43  C1  SGN d 902     -26.999  83.704  18.551  0.00  0.00     0.150 C 
ATOM     44  C5  SGN d 902     -25.556  82.898  20.320  0.00  0.00     0.091 C 
ATOM     45  N   SGN d 902     -26.367  83.386  16.226  0.00  0.00    -0.210 NA
ATOM     46  S1  SGN d 902     -27.091  84.701  15.290  0.00  0.00     0.156 S 
ATOM     47  C4  SGN d 902     -24.370  82.832  19.357  0.00  0.00     0.095 C 
ATOM     48  O5S SGN d 902     -24.195  85.844  23.988  0.00  0.00    -0.572 OA
ATOM     49  C2  SGN d 902     -25.847  83.653  17.551  0.00  0.00     0.081 C 
ATOM     50  S2  SGN d 902     -23.456  85.196  22.887  0.00  0.00     0.251 S 
ATOM     51  O3S SGN d 902     -28.035  85.450  16.139  0.00  0.00    -0.296 OA
ATOM     52  C6  SGN d 902     -25.079  83.282  21.714  0.00  0.00     0.067 C 
ATOM     53  O3  SGN d 902     -23.797  82.511  17.044  0.00  0.00    -0.391 OA
ATOM     54  O2S SGN d 902     -26.028  85.610  14.822  0.00  0.00    -0.296 OA
ATOM     55  O6S SGN d 902     -22.689  84.049  23.409  0.00  0.00    -0.572 OA
ATOM     56  C3  SGN d 902     -24.877  82.549  17.949  0.00  0.00     0.083 C 
ATOM     57  O5  SGN d 902     -26.472  83.909  19.869  0.00  0.00    -0.349 OA
ATOM     58  O1S SGN d 902     -27.808  84.140  14.130  0.00  0.00    -0.296 OA
ATOM     59  O4S SGN d 902     -22.533  86.167  22.269  0.00  0.00    -0.572 OA
ATOM     60  O4  SGN d 902     -23.485  81.783  19.753  0.00  0.00    -0.348 OA
ATOM     61  O1  SGN d 902     -27.761  82.498  18.454  0.00  0.00    -0.348 OA
ATOM     62  H   SGN d 902     -27.656  84.520  18.333  0.00  0.00     0.131 H 
ATOM     63  H   SGN d 902     -26.031  81.940  20.350  0.00  0.00     0.090 H 
ATOM     64  H   SGN d 902     -27.083  82.666  16.328  0.00  0.00     0.140 HD
ATOM     65  H   SGN d 902     -23.849  83.767  19.375  0.00  0.00     0.091 H 
ATOM     66  H   SGN d 902     -25.336  84.593  17.548  0.00  0.00     0.076 H 
ATOM     67  H   SGN d 902     -28.736  84.854  16.448  0.00  0.00     0.231 HD
ATOM     68  H   SGN d 902     -25.890  83.203  22.408  0.00  0.00     0.080 H 
ATOM     69  H   SGN d 902     -24.292  82.627  22.025  0.00  0.00     0.080 H 
ATOM     70  H   SGN d 902     -23.183  81.806  17.303  0.00  0.00     0.210 HD
ATOM     71  H   SGN d 902     -25.406  85.119  14.262  0.00  0.00     0.231 HD
ATOM     72  H   SGN d 902     -25.372  81.601  17.927  0.00  0.00     0.089 H 
ATOM     73  H   SGN d 902     -27.185  83.648  13.572  0.00  0.00     0.231 HD
ATOM     74  O4S SGN d 904     -33.934  81.483  14.049  0.00  0.00    -0.572 OA
ATOM     75  O5S SGN d 904     -35.867  82.558  15.009  0.00  0.00    -0.572 OA
ATOM     76  C3  SGN d 904     -32.634  78.304  19.253  0.00  0.00     0.083 C 
ATOM     77  N   SGN d 904     -33.128  75.942  19.287  0.00  0.00    -0.210 NA
ATOM     78  O5  SGN d 904     -35.203  78.712  18.102  0.00  0.00    -0.350 OA
ATOM     79  O6S SGN d 904     -33.669  83.088  15.835  0.00  0.00    -0.572 OA
ATOM     80  O3S SGN d 904     -33.341  74.653  17.008  0.00  0.00    -0.296 OA
ATOM     81  O4  SGN d 904     -32.356  80.668  19.267  0.00  0.00    -0.348 OA
ATOM     82  S2  SGN d 904     -34.527  82.018  15.290  0.00  0.00     0.251 S 
ATOM     83  O1  SGN d 904     -35.280  77.509  20.127  0.00  0.00    -0.369 OA
ATOM     84  O3  SGN d 904     -31.260  78.040  19.082  0.00  0.00    -0.391 OA
ATOM     85  O2S SGN d 904     -32.669  73.361  18.936  0.00  0.00    -0.296 OA
ATOM     86  C5  SGN d 904     -34.514  79.833  18.666  0.00  0.00     0.091 C 
ATOM     87  O6  SGN d 904     -34.664  80.727  16.477  0.00  0.00    -0.254 OA
ATOM     88  O1S SGN d 904     -34.954  74.118  18.717  0.00  0.00    -0.296 OA
ATOM     89  C1  SGN d 904     -34.921  77.464  18.743  0.00  0.00     0.147 C 
ATOM     90  C4  SGN d 904     -33.005  79.610  18.566  0.00  0.00     0.095 C 
ATOM     91  C2  SGN d 904     -33.431  77.181  18.618  0.00  0.00     0.081 C 
ATOM     92  C6  SGN d 904     -34.898  81.050  17.847  0.00  0.00     0.067 C 
ATOM     93  S1  SGN d 904     -33.542  74.449  18.453  0.00  0.00     0.156 S 
ATOM     94  H   SGN d 904     -32.850  78.377  20.299  0.00  0.00     0.089 H 
ATOM     95  H   SGN d 904     -33.628  75.944  20.177  0.00  0.00     0.140 HD
ATOM     96  H   SGN d 904     -32.411  74.870  16.838  0.00  0.00     0.231 HD
ATOM     97  H   SGN d 904     -36.230  77.688  20.209  0.00  0.00     0.212 HD
ATOM     98  H   SGN d 904     -31.059  77.973  18.136  0.00  0.00     0.210 HD
ATOM     99  H   SGN d 904     -31.742  73.587  18.758  0.00  0.00     0.231 HD
ATOM    100  H   SGN d 904     -34.775  79.964  19.695  0.00  0.00     0.090 H 
ATOM    101  H   SGN d 904     -35.520  74.838  18.397  0.00  0.00     0.231 HD
ATOM    102  H   SGN d 904     -35.493  76.691  18.272  0.00  0.00     0.131 H 
ATOM    103  H   SGN d 904     -32.711  79.578  17.538  0.00  0.00     0.091 H 
ATOM    104  H   SGN d 904     -33.170  77.111  17.582  0.00  0.00     0.076 H 
ATOM    105  H   SGN d 904     -34.298  81.889  18.133  0.00  0.00     0.080 H 
ATOM    106  H   SGN d 904     -35.923  81.307  18.007  0.00  0.00     0.080 H 
ENDROOT
TORSDOF 33
ENDMDL
MODEL 41
REMARK VINA RESULT:      -7.0      5.972      8.113
REMARK  0 active torsions:
REMARK  status: ('A' for Active; 'I' for Inactive)
REMARK       I    between atoms: C3_1  and  O3_18 
REMARK       I    between atoms: O6_3  and  C6_41 
REMARK       I    between atoms: O6_3  and  S2_27 
REMARK       I    between atoms: C1_4  and  O1_67 
REMARK       I    between atoms: O2_6  and  C2_60 
REMARK       I    between atoms: O2_6  and  S_64 
REMARK       I    between atoms: C5_7  and  C6_41 
REMARK       I    between atoms: C6_9  and  C5_36 
REMARK       I    between atoms: N_10  and  C2_26 
REMARK       I    between atoms: N_10  and  S1_14 
REMARK       I    between atoms: O2_12  and  C2_39 
REMARK       I    between atoms: O2_12  and  S_34 
REMARK       I    between atoms: C3_13  and  O3_44 
REMARK       I    between atoms: S1_14  and  O1S_57 
REMARK       I    between atoms: S1_14  and  O2S_48 
REMARK       I    between atoms: S1_14  and  O3S_38 
REMARK       I    between atoms: C6_16  and  C5_68 
REMARK       I    between atoms: C4_17  and  O4_62 
REMARK       I    between atoms: N_21  and  C2_65 
REMARK       I    between atoms: N_21  and  S1_69 
REMARK       I    between atoms: C3_25  and  O3_30 
REMARK       I    between atoms: O3S_29  and  S1_69 
REMARK       I    between atoms: O4_31  and  C1_42 
REMARK       I    between atoms: O4_31  and  C4_63 
REMARK       I    between atoms: S2_35  and  O6_49 
REMARK       I    between atoms: O1_37  and  C1_61 
REMARK       I    between atoms: O2S_45  and  S1_69 
REMARK       I    between atoms: O3_46  and  C3_55 
REMARK       I    between atoms: C5_47  and  C6_66 
REMARK       I    between atoms: O6_49  and  C6_66 
REMARK       I    between atoms: O1S_52  and  S1_69 
REMARK       I    between atoms: C1_54  and  O4_62 
REMARK       I    between atoms: C4_59  and  O1_67 
ROOT
ATOM      1  C3  UAP d 901     -27.532  75.091  22.520  0.00  0.00     0.086 C 
ATOM      2  O1S UAP d 901     -27.835  75.461  27.149  0.00  0.00    -0.572 OA
ATOM      3  C6  UAP d 901     -24.608  73.560  20.927  0.00  0.00     0.233 C 
ATOM      4  O2  UAP d 901     -26.748  75.634  24.735  0.00  0.00    -0.244 OA
ATOM      5  O3  UAP d 901     -28.506  75.750  21.740  0.00  0.00    -0.389 OA
ATOM      6  O61 UAP d 901     -25.200  72.820  20.109  0.00  0.00    -0.642 OA
ATOM      7  O5  UAP d 901     -24.701  75.122  22.631  0.00  0.00    -0.311 OA
ATOM      8  O2S UAP d 901     -29.337  75.781  25.294  0.00  0.00    -0.572 OA
ATOM      9  S   UAP d 901     -28.020  76.139  25.853  0.00  0.00     0.252 S 
ATOM     10  C5  UAP d 901     -25.325  74.334  21.743  0.00  0.00     0.147 C 
ATOM     11  C2  UAP d 901     -26.774  76.097  23.387  0.00  0.00     0.135 C 
ATOM     12  O62 UAP d 901     -23.361  73.582  21.005  0.00  0.00    -0.642 OA
ATOM     13  O3S UAP d 901     -27.950  77.599  26.046  0.00  0.00    -0.572 OA
ATOM     14  C4  UAP d 901     -26.668  74.302  21.666  0.00  0.00    -0.034 C 
ATOM     15  C1  UAP d 901     -25.354  76.360  22.906  0.00  0.00     0.167 C 
ATOM     16  H   UAP d 901     -28.003  74.408  23.195  0.00  0.00     0.093 H 
ATOM     17  H   UAP d 901     -28.070  76.366  21.131  0.00  0.00     0.210 HD
ATOM     18  H   UAP d 901     -27.298  77.027  23.316  0.00  0.00     0.097 H 
ATOM     19  H   UAP d 901     -27.103  73.684  20.964  0.00  0.00     0.085 H 
ATOM     20  H   UAP d 901     -24.797  76.864  23.668  0.00  0.00     0.134 H 
ATOM     21  O1S IDS d 903     -20.171  86.977  18.394  0.00  0.00    -0.572 OA
ATOM     22  O2  IDS d 903     -21.564  84.728  18.373  0.00  0.00    -0.244 OA
ATOM     23  O5  IDS d 903     -24.563  82.887  17.685  0.00  0.00    -0.340 OA
ATOM     24  C6  IDS d 903     -25.963  81.424  18.911  0.00  0.00     0.206 C 
ATOM     25  O2S IDS d 903     -22.024  86.823  19.930  0.00  0.00    -0.572 OA
ATOM     26  C3  IDS d 903     -22.372  82.618  19.110  0.00  0.00     0.094 C 
ATOM     27  O3S IDS d 903     -20.009  85.562  20.338  0.00  0.00    -0.572 OA
ATOM     28  O3  IDS d 903     -21.364  82.583  20.097  0.00  0.00    -0.390 OA
ATOM     29  O61 IDS d 903     -26.495  81.026  19.964  0.00  0.00    -0.646 OA
ATOM     30  C1  IDS d 903     -23.749  84.071  17.663  0.00  0.00     0.161 C 
ATOM     31  C4  IDS d 903     -23.624  81.906  19.639  0.00  0.00     0.103 C 
ATOM     32  C2  IDS d 903     -22.736  84.054  18.817  0.00  0.00     0.134 C 
ATOM     33  S   IDS d 903     -20.918  86.083  19.296  0.00  0.00     0.252 S 
ATOM     34  C5  IDS d 903     -24.893  82.495  19.009  0.00  0.00     0.152 C 
ATOM     35  O62 IDS d 903     -26.275  80.989  17.779  0.00  0.00    -0.646 OA
ATOM     36  H   IDS d 903     -22.015  82.136  18.225  0.00  0.00     0.091 H 
ATOM     37  H   IDS d 903     -21.685  83.020  20.901  0.00  0.00     0.210 HD
ATOM     38  H   IDS d 903     -23.235  84.105  16.725  0.00  0.00     0.133 H 
ATOM     39  H   IDS d 903     -23.662  82.035  20.700  0.00  0.00     0.092 H 
ATOM     40  H   IDS d 903     -23.142  84.522  19.688  0.00  0.00     0.097 H 
ATOM     41  H   IDS d 903     -25.251  83.313  19.599  0.00  0.00     0.104 H 
ATOM     42  O6  SGN d 902     -22.911  78.718  23.892  0.00  0.00    -0.254 OA
ATOM     43  C1  SGN d 902     -22.585  79.753  19.998  0.00  0.00     0.150 C 
ATOM     44  C5  SGN d 902     -24.051  79.209  21.845  0.00  0.00     0.091 C 
ATOM     45  N   SGN d 902     -22.467  78.286  18.064  0.00  0.00    -0.210 NA
ATOM     46  S1  SGN d 902     -20.853  78.455  17.361  0.00  0.00     0.156 S 
ATOM     47  C4  SGN d 902     -24.123  77.750  21.391  0.00  0.00     0.095 C 
ATOM     48  O5S SGN d 902     -22.376  79.143  26.447  0.00  0.00    -0.572 OA
ATOM     49  C2  SGN d 902     -22.626  78.310  19.504  0.00  0.00     0.081 C 
ATOM     50  S2  SGN d 902     -22.882  78.092  25.542  0.00  0.00     0.251 S 
ATOM     51  O3S SGN d 902     -20.152  79.584  17.999  0.00  0.00    -0.296 OA
ATOM     52  C6  SGN d 902     -24.107  79.288  23.365  0.00  0.00     0.067 C 
ATOM     53  O3  SGN d 902     -24.001  76.342  19.447  0.00  0.00    -0.391 OA
ATOM     54  O2S SGN d 902     -20.089  77.214  17.588  0.00  0.00    -0.296 OA
ATOM     55  O6S SGN d 902     -24.248  77.704  25.942  0.00  0.00    -0.572 OA
ATOM     56  C3  SGN d 902     -23.963  77.683  19.879  0.00  0.00     0.083 C 
ATOM     57  O5  SGN d 902     -22.803  79.773  21.415  0.00  0.00    -0.349 OA
ATOM     58  O1S SGN d 902     -20.973  78.703  15.913  0.00  0.00    -0.296 OA
ATOM     59  O4S SGN d 902     -21.996  76.914  25.604  0.00  0.00    -0.572 OA
ATOM     60  O4  SGN d 902     -25.390  77.196  21.750  0.00  0.00    -0.348 OA
ATOM     61  O1  SGN d 902     -23.558  80.523  19.290  0.00  0.00    -0.348 OA
ATOM     62  H   SGN d 902     -21.627  80.191  19.810  0.00  0.00     0.131 H 
ATOM     63  H   SGN d 902     -24.877  79.743  21.423  0.00  0.00     0.090 H 
ATOM     64  H   SGN d 902     -23.034  79.047  17.691  0.00  0.00     0.140 HD
ATOM     65  H   SGN d 902     -23.341  77.195  21.865  0.00  0.00     0.091 H 
ATOM     66  H   SGN d 902     -21.832  77.754  19.958  0.00  0.00     0.076 H 
ATOM     67  H   SGN d 902     -20.653  80.401  17.851  0.00  0.00     0.231 HD
ATOM     68  H   SGN d 902     -24.185  80.311  23.670  0.00  0.00     0.080 H 
ATOM     69  H   SGN d 902     -24.960  78.754  23.728  0.00  0.00     0.080 H 
ATOM     70  H   SGN d 902     -24.855  75.948  19.689  0.00  0.00     0.210 HD
ATOM     71  H   SGN d 902     -20.548  76.470  17.169  0.00  0.00     0.231 HD
ATOM     72  H   SGN d 902     -24.762  78.214  19.406  0.00  0.00     0.089 H 
ATOM     73  H   SGN d 902     -21.435  77.959  15.494  0.00  0.00     0.231 HD
ATOM     74  O4S SGN d 904     -22.270  84.516  12.891  0.00  0.00    -0.572 OA
ATOM     75  O5S SGN d 904     -21.089  86.562  13.372  0.00  0.00    -0.572 OA
ATOM     76  C3  SGN d 904     -26.772  85.681  17.044  0.00  0.00     0.083 C 
ATOM     77  N   SGN d 904     -28.931  86.365  16.209  0.00  0.00    -0.210 NA
ATOM     78  O5  SGN d 904     -25.606  87.535  15.230  0.00  0.00    -0.350 OA
ATOM     79  O6S SGN d 904     -21.213  84.831  15.041  0.00  0.00    -0.572 OA
ATOM     80  O3S SGN d 904     -29.581  85.777  13.732  0.00  0.00    -0.296 OA
ATOM     81  O4  SGN d 904     -24.581  85.213  17.846  0.00  0.00    -0.348 OA
ATOM     82  S2  SGN d 904     -21.934  85.498  13.939  0.00  0.00     0.251 S 
ATOM     83  O1  SGN d 904     -27.210  88.518  16.649  0.00  0.00    -0.369 OA
ATOM     84  O3  SGN d 904     -27.255  84.382  17.303  0.00  0.00    -0.391 OA
ATOM     85  O2S SGN d 904     -31.396  86.046  15.305  0.00  0.00    -0.296 OA
ATOM     86  C5  SGN d 904     -24.807  87.025  16.303  0.00  0.00     0.091 C 
ATOM     87  O6  SGN d 904     -23.414  86.213  14.568  0.00  0.00    -0.254 OA
ATOM     88  O1S SGN d 904     -30.171  87.977  14.521  0.00  0.00    -0.296 OA
ATOM     89  C1  SGN d 904     -26.999  87.647  15.534  0.00  0.00     0.147 C 
ATOM     90  C4  SGN d 904     -25.295  85.627  16.685  0.00  0.00     0.095 C 
ATOM     91  C2  SGN d 904     -27.534  86.262  15.869  0.00  0.00     0.081 C 
ATOM     92  C6  SGN d 904     -23.381  86.938  15.795  0.00  0.00     0.067 C 
ATOM     93  S1  SGN d 904     -30.075  86.552  14.885  0.00  0.00     0.156 S 
ATOM     94  H   SGN d 904     -26.905  86.285  17.918  0.00  0.00     0.089 H 
ATOM     95  H   SGN d 904     -29.038  87.173  16.822  0.00  0.00     0.140 HD
ATOM     96  H   SGN d 904     -29.520  84.841  13.975  0.00  0.00     0.231 HD
ATOM     97  H   SGN d 904     -26.870  89.402  16.437  0.00  0.00     0.212 HD
ATOM     98  H   SGN d 904     -27.137  83.830  16.514  0.00  0.00     0.210 HD
ATOM     99  H   SGN d 904     -31.323  85.108  15.542  0.00  0.00     0.231 HD
ATOM    100  H   SGN d 904     -24.872  87.658  17.163  0.00  0.00     0.090 H 
ATOM    101  H   SGN d 904     -29.299  88.301  14.247  0.00  0.00     0.231 HD
ATOM    102  H   SGN d 904     -27.511  88.055  14.688  0.00  0.00     0.131 H 
ATOM    103  H   SGN d 904     -25.143  84.955  15.866  0.00  0.00     0.091 H 
ATOM    104  H   SGN d 904     -27.410  85.621  15.022  0.00  0.00     0.076 H 
ATOM    105  H   SGN d 904     -22.768  86.426  16.507  0.00  0.00     0.080 H 
ATOM    106  H   SGN d 904     -22.971  87.915  15.649  0.00  0.00     0.080 H 
ENDROOT
TORSDOF 33
ENDMDL
MODEL 42
REMARK VINA RESULT:      -7.0      4.402      9.049
REMARK  0 active torsions:
REMARK  status: ('A' for Active; 'I' for Inactive)
REMARK       I    between atoms: C3_1  and  O3_18 
REMARK       I    between atoms: O6_3  and  C6_41 
REMARK       I    between atoms: O6_3  and  S2_27 
REMARK       I    between atoms: C1_4  and  O1_67 
REMARK       I    between atoms: O2_6  and  C2_60 
REMARK       I    between atoms: O2_6  and  S_64 
REMARK       I    between atoms: C5_7  and  C6_41 
REMARK       I    between atoms: C6_9  and  C5_36 
REMARK       I    between atoms: N_10  and  C2_26 
REMARK       I    between atoms: N_10  and  S1_14 
REMARK       I    between atoms: O2_12  and  C2_39 
REMARK       I    between atoms: O2_12  and  S_34 
REMARK       I    between atoms: C3_13  and  O3_44 
REMARK       I    between atoms: S1_14  and  O1S_57 
REMARK       I    between atoms: S1_14  and  O2S_48 
REMARK       I    between atoms: S1_14  and  O3S_38 
REMARK       I    between atoms: C6_16  and  C5_68 
REMARK       I    between atoms: C4_17  and  O4_62 
REMARK       I    between atoms: N_21  and  C2_65 
REMARK       I    between atoms: N_21  and  S1_69 
REMARK       I    between atoms: C3_25  and  O3_30 
REMARK       I    between atoms: O3S_29  and  S1_69 
REMARK       I    between atoms: O4_31  and  C1_42 
REMARK       I    between atoms: O4_31  and  C4_63 
REMARK       I    between atoms: S2_35  and  O6_49 
REMARK       I    between atoms: O1_37  and  C1_61 
REMARK       I    between atoms: O2S_45  and  S1_69 
REMARK       I    between atoms: O3_46  and  C3_55 
REMARK       I    between atoms: C5_47  and  C6_66 
REMARK       I    between atoms: O6_49  and  C6_66 
REMARK       I    between atoms: O1S_52  and  S1_69 
REMARK       I    between atoms: C1_54  and  O4_62 
REMARK       I    between atoms: C4_59  and  O1_67 
ROOT
ATOM      1  C3  UAP d 901     -23.148  81.169  19.797  0.00  0.00     0.086 C 
ATOM      2  O1S UAP d 901     -20.824  77.414  18.326  0.00  0.00    -0.572 OA
ATOM      3  C6  UAP d 901     -23.885  81.671  23.351  0.00  0.00     0.233 C 
ATOM      4  O2  UAP d 901     -22.647  78.814  19.651  0.00  0.00    -0.244 OA
ATOM      5  O3  UAP d 901     -23.722  82.013  18.822  0.00  0.00    -0.389 OA
ATOM      6  O61 UAP d 901     -23.551  82.874  23.449  0.00  0.00    -0.642 OA
ATOM      7  O5  UAP d 901     -24.124  79.768  22.057  0.00  0.00    -0.311 OA
ATOM      8  O2S UAP d 901     -21.531  79.496  17.344  0.00  0.00    -0.572 OA
ATOM      9  S   UAP d 901     -21.974  78.309  18.098  0.00  0.00     0.252 S 
ATOM     10  C5  UAP d 901     -23.779  81.059  22.171  0.00  0.00     0.147 C 
ATOM     11  C2  UAP d 901     -23.717  79.755  19.679  0.00  0.00     0.135 C 
ATOM     12  O62 UAP d 901     -24.306  81.027  24.336  0.00  0.00    -0.642 OA
ATOM     13  O3S UAP d 901     -23.008  77.595  17.326  0.00  0.00    -0.572 OA
ATOM     14  C4  UAP d 901     -23.316  81.750  21.113  0.00  0.00    -0.034 C 
ATOM     15  C1  UAP d 901     -24.686  79.400  20.799  0.00  0.00     0.167 C 
ATOM     16  H   UAP d 901     -22.094  81.082  19.631  0.00  0.00     0.093 H 
ATOM     17  H   UAP d 901     -24.676  82.086  18.981  0.00  0.00     0.210 HD
ATOM     18  H   UAP d 901     -24.277  79.720  18.769  0.00  0.00     0.097 H 
ATOM     19  H   UAP d 901     -23.067  82.742  21.247  0.00  0.00     0.085 H 
ATOM     20  H   UAP d 901     -24.858  78.344  20.811  0.00  0.00     0.134 H 
ATOM     21  O1S IDS d 903     -37.067  76.870  20.298  0.00  0.00    -0.572 OA
ATOM     22  O2  IDS d 903     -34.865  78.335  20.380  0.00  0.00    -0.244 OA
ATOM     23  O5  IDS d 903     -32.760  80.932  19.085  0.00  0.00    -0.340 OA
ATOM     24  C6  IDS d 903     -30.483  81.105  18.463  0.00  0.00     0.206 C 
ATOM     25  O2S IDS d 903     -35.458  76.528  18.533  0.00  0.00    -0.572 OA
ATOM     26  C3  IDS d 903     -32.570  78.866  20.696  0.00  0.00     0.094 C 
ATOM     27  O3S IDS d 903     -34.998  75.725  20.760  0.00  0.00    -0.572 OA
ATOM     28  O3  IDS d 903     -32.372  77.613  21.315  0.00  0.00    -0.390 OA
ATOM     29  O61 IDS d 903     -29.421  80.637  18.011  0.00  0.00    -0.646 OA
ATOM     30  C1  IDS d 903     -33.965  80.151  19.114  0.00  0.00     0.161 C 
ATOM     31  C4  IDS d 903     -31.295  79.266  19.944  0.00  0.00     0.103 C 
ATOM     32  C2  IDS d 903     -33.693  78.755  19.692  0.00  0.00     0.134 C 
ATOM     33  S   IDS d 903     -35.632  76.802  19.971  0.00  0.00     0.252 S 
ATOM     34  C5  IDS d 903     -31.629  80.150  18.734  0.00  0.00     0.152 C 
ATOM     35  O62 IDS d 903     -30.650  82.324  18.693  0.00  0.00    -0.646 OA
ATOM     36  H   IDS d 903     -32.808  79.594  21.442  0.00  0.00     0.091 H 
ATOM     37  H   IDS d 903     -32.156  76.950  20.641  0.00  0.00     0.210 HD
ATOM     38  H   IDS d 903     -34.681  80.665  19.721  0.00  0.00     0.133 H 
ATOM     39  H   IDS d 903     -30.807  78.375  19.609  0.00  0.00     0.092 H 
ATOM     40  H   IDS d 903     -33.434  78.065  18.917  0.00  0.00     0.097 H 
ATOM     41  H   IDS d 903     -31.806  79.540  17.873  0.00  0.00     0.104 H 
ATOM     42  O6  SGN d 902     -26.825  76.629  21.298  0.00  0.00    -0.254 OA
ATOM     43  C1  SGN d 902     -29.832  79.271  21.868  0.00  0.00     0.150 C 
ATOM     44  C5  SGN d 902     -27.895  78.639  20.559  0.00  0.00     0.091 C 
ATOM     45  N   SGN d 902     -29.798  81.316  23.182  0.00  0.00    -0.210 NA
ATOM     46  S1  SGN d 902     -30.883  81.085  24.559  0.00  0.00     0.156 S 
ATOM     47  C4  SGN d 902     -27.002  79.566  21.387  0.00  0.00     0.095 C 
ATOM     48  O5S SGN d 902     -25.962  74.156  20.939  0.00  0.00    -0.572 OA
ATOM     49  C2  SGN d 902     -28.983  80.211  22.721  0.00  0.00     0.081 C 
ATOM     50  S2  SGN d 902     -25.469  75.501  21.293  0.00  0.00     0.251 S 
ATOM     51  O3S SGN d 902     -31.651  79.839  24.380  0.00  0.00    -0.296 OA
ATOM     52  C6  SGN d 902     -27.117  77.402  20.135  0.00  0.00     0.067 C 
ATOM     53  O3  SGN d 902     -27.021  81.595  22.675  0.00  0.00    -0.391 OA
ATOM     54  O2S SGN d 902     -30.089  80.996  25.798  0.00  0.00    -0.296 OA
ATOM     55  O6S SGN d 902     -24.468  75.942  20.303  0.00  0.00    -0.572 OA
ATOM     56  C3  SGN d 902     -27.824  80.745  21.888  0.00  0.00     0.083 C 
ATOM     57  O5  SGN d 902     -29.004  78.213  21.366  0.00  0.00    -0.349 OA
ATOM     58  O1S SGN d 902     -31.811  82.228  24.648  0.00  0.00    -0.296 OA
ATOM     59  O4S SGN d 902     -24.854  75.466  22.634  0.00  0.00    -0.572 OA
ATOM     60  O4  SGN d 902     -25.933  80.055  20.576  0.00  0.00    -0.348 OA
ATOM     61  O1  SGN d 902     -30.452  80.017  20.819  0.00  0.00    -0.348 OA
ATOM     62  H   SGN d 902     -30.609  78.826  22.453  0.00  0.00     0.131 H 
ATOM     63  H   SGN d 902     -28.235  79.169  19.694  0.00  0.00     0.090 H 
ATOM     64  H   SGN d 902     -30.377  81.606  22.394  0.00  0.00     0.140 HD
ATOM     65  H   SGN d 902     -26.603  79.021  22.217  0.00  0.00     0.091 H 
ATOM     66  H   SGN d 902     -28.599  79.677  23.565  0.00  0.00     0.076 H 
ATOM     67  H   SGN d 902     -32.175  79.895  23.565  0.00  0.00     0.231 HD
ATOM     68  H   SGN d 902     -27.704  76.822  19.454  0.00  0.00     0.080 H 
ATOM     69  H   SGN d 902     -26.208  77.690  19.649  0.00  0.00     0.080 H 
ATOM     70  H   SGN d 902     -26.286  81.932  22.139  0.00  0.00     0.210 HD
ATOM     71  H   SGN d 902     -29.583  81.815  25.918  0.00  0.00     0.231 HD
ATOM     72  H   SGN d 902     -28.199  81.305  21.057  0.00  0.00     0.089 H 
ATOM     73  H   SGN d 902     -31.304  83.047  24.767  0.00  0.00     0.231 HD
ATOM     74  O4S SGN d 904     -37.407  83.189  21.134  0.00  0.00    -0.572 OA
ATOM     75  O5S SGN d 904     -39.130  81.521  20.886  0.00  0.00    -0.572 OA
ATOM     76  C3  SGN d 904     -34.445  81.463  15.926  0.00  0.00     0.083 C 
ATOM     77  N   SGN d 904     -34.645  82.887  13.988  0.00  0.00    -0.210 NA
ATOM     78  O5  SGN d 904     -37.254  81.735  16.278  0.00  0.00    -0.350 OA
ATOM     79  O6S SGN d 904     -36.867  80.844  21.348  0.00  0.00    -0.572 OA
ATOM     80  O3S SGN d 904     -35.300  85.409  14.324  0.00  0.00    -0.296 OA
ATOM     81  O4  SGN d 904     -34.440  79.974  17.782  0.00  0.00    -0.348 OA
ATOM     82  S2  SGN d 904     -37.711  81.830  20.646  0.00  0.00     0.251 S 
ATOM     83  O1  SGN d 904     -36.665  80.966  14.131  0.00  0.00    -0.369 OA
ATOM     84  O3  SGN d 904     -33.143  81.942  16.176  0.00  0.00    -0.391 OA
ATOM     85  O2S SGN d 904     -34.007  84.868  12.355  0.00  0.00    -0.296 OA
ATOM     86  C5  SGN d 904     -36.572  80.680  16.965  0.00  0.00     0.091 C 
ATOM     87  O6  SGN d 904     -37.388  81.742  18.919  0.00  0.00    -0.254 OA
ATOM     88  O1S SGN d 904     -36.340  84.248  12.485  0.00  0.00    -0.296 OA
ATOM     89  C1  SGN d 904     -36.677  82.088  15.018  0.00  0.00     0.147 C 
ATOM     90  C4  SGN d 904     -35.126  81.097  17.236  0.00  0.00     0.095 C 
ATOM     91  C2  SGN d 904     -35.249  82.559  15.254  0.00  0.00     0.081 C 
ATOM     92  C6  SGN d 904     -37.291  80.469  18.284  0.00  0.00     0.067 C 
ATOM     93  S1  SGN d 904     -35.093  84.421  13.250  0.00  0.00     0.156 S 
ATOM     94  H   SGN d 904     -34.387  80.598  15.300  0.00  0.00     0.089 H 
ATOM     95  H   SGN d 904     -34.892  82.148  13.330  0.00  0.00     0.140 HD
ATOM     96  H   SGN d 904     -34.477  85.520  14.824  0.00  0.00     0.231 HD
ATOM     97  H   SGN d 904     -37.574  80.664  13.978  0.00  0.00     0.212 HD
ATOM     98  H   SGN d 904     -33.190  82.727  16.743  0.00  0.00     0.210 HD
ATOM     99  H   SGN d 904     -33.190  84.979  12.867  0.00  0.00     0.231 HD
ATOM    100  H   SGN d 904     -36.568  79.784  16.381  0.00  0.00     0.090 H 
ATOM    101  H   SGN d 904     -37.047  83.955  13.081  0.00  0.00     0.231 HD
ATOM    102  H   SGN d 904     -37.262  82.864  14.569  0.00  0.00     0.131 H 
ATOM    103  H   SGN d 904     -35.110  81.933  17.903  0.00  0.00     0.091 H 
ATOM    104  H   SGN d 904     -35.262  83.421  15.888  0.00  0.00     0.076 H 
ATOM    105  H   SGN d 904     -36.735  79.793  18.900  0.00  0.00     0.080 H 
ATOM    106  H   SGN d 904     -38.261  80.049  18.124  0.00  0.00     0.080 H 
ENDROOT
TORSDOF 33
ENDMDL
MODEL 43
REMARK VINA RESULT:      -7.0      4.680      8.562
REMARK  0 active torsions:
REMARK  status: ('A' for Active; 'I' for Inactive)
REMARK       I    between atoms: C3_1  and  O3_18 
REMARK       I    between atoms: O6_3  and  C6_41 
REMARK       I    between atoms: O6_3  and  S2_27 
REMARK       I    between atoms: C1_4  and  O1_67 
REMARK       I    between atoms: O2_6  and  C2_60 
REMARK       I    between atoms: O2_6  and  S_64 
REMARK       I    between atoms: C5_7  and  C6_41 
REMARK       I    between atoms: C6_9  and  C5_36 
REMARK       I    between atoms: N_10  and  C2_26 
REMARK       I    between atoms: N_10  and  S1_14 
REMARK       I    between atoms: O2_12  and  C2_39 
REMARK       I    between atoms: O2_12  and  S_34 
REMARK       I    between atoms: C3_13  and  O3_44 
REMARK       I    between atoms: S1_14  and  O1S_57 
REMARK       I    between atoms: S1_14  and  O2S_48 
REMARK       I    between atoms: S1_14  and  O3S_38 
REMARK       I    between atoms: C6_16  and  C5_68 
REMARK       I    between atoms: C4_17  and  O4_62 
REMARK       I    between atoms: N_21  and  C2_65 
REMARK       I    between atoms: N_21  and  S1_69 
REMARK       I    between atoms: C3_25  and  O3_30 
REMARK       I    between atoms: O3S_29  and  S1_69 
REMARK       I    between atoms: O4_31  and  C1_42 
REMARK       I    between atoms: O4_31  and  C4_63 
REMARK       I    between atoms: S2_35  and  O6_49 
REMARK       I    between atoms: O1_37  and  C1_61 
REMARK       I    between atoms: O2S_45  and  S1_69 
REMARK       I    between atoms: O3_46  and  C3_55 
REMARK       I    between atoms: C5_47  and  C6_66 
REMARK       I    between atoms: O6_49  and  C6_66 
REMARK       I    between atoms: O1S_52  and  S1_69 
REMARK       I    between atoms: C1_54  and  O4_62 
REMARK       I    between atoms: C4_59  and  O1_67 
ROOT
ATOM      1  C3  UAP d 901     -25.241  81.314  22.175  0.00  0.00     0.086 C 
ATOM      2  O1S UAP d 901     -22.842  84.540  19.830  0.00  0.00    -0.572 OA
ATOM      3  C6  UAP d 901     -25.179  77.794  21.159  0.00  0.00     0.233 C 
ATOM      4  O2  UAP d 901     -24.474  82.483  20.209  0.00  0.00    -0.244 OA
ATOM      5  O3  UAP d 901     -26.139  81.754  23.171  0.00  0.00    -0.389 OA
ATOM      6  O61 UAP d 901     -24.997  77.272  22.283  0.00  0.00    -0.642 OA
ATOM      7  O5  UAP d 901     -25.455  79.691  19.864  0.00  0.00    -0.311 OA
ATOM      8  O2S UAP d 901     -24.038  84.464  21.919  0.00  0.00    -0.572 OA
ATOM      9  S   UAP d 901     -24.124  84.195  20.472  0.00  0.00     0.252 S 
ATOM     10  C5  UAP d 901     -25.273  79.121  21.064  0.00  0.00     0.147 C 
ATOM     11  C2  UAP d 901     -25.625  81.901  20.816  0.00  0.00     0.135 C 
ATOM     12  O62 UAP d 901     -25.263  77.101  20.123  0.00  0.00    -0.642 OA
ATOM     13  O3S UAP d 901     -25.204  85.009  19.884  0.00  0.00    -0.572 OA
ATOM     14  C4  UAP d 901     -25.170  79.868  22.179  0.00  0.00    -0.034 C 
ATOM     15  C1  UAP d 901     -26.243  80.879  19.871  0.00  0.00     0.167 C 
ATOM     16  H   UAP d 901     -24.255  81.671  22.387  0.00  0.00     0.093 H 
ATOM     17  H   UAP d 901     -27.029  81.426  22.971  0.00  0.00     0.210 HD
ATOM     18  H   UAP d 901     -26.374  82.642  20.997  0.00  0.00     0.097 H 
ATOM     19  H   UAP d 901     -25.035  79.386  23.080  0.00  0.00     0.085 H 
ATOM     20  H   UAP d 901     -26.262  81.268  18.875  0.00  0.00     0.134 H 
ATOM     21  O1S IDS d 903     -37.930  80.331  15.068  0.00  0.00    -0.572 OA
ATOM     22  O2  IDS d 903     -35.991  80.023  16.842  0.00  0.00    -0.244 OA
ATOM     23  O5  IDS d 903     -34.625  80.478  20.125  0.00  0.00    -0.340 OA
ATOM     24  C6  IDS d 903     -32.605  81.340  21.007  0.00  0.00     0.206 C 
ATOM     25  O2S IDS d 903     -36.752  82.319  15.759  0.00  0.00    -0.572 OA
ATOM     26  C3  IDS d 903     -33.780  79.899  17.706  0.00  0.00     0.094 C 
ATOM     27  O3S IDS d 903     -35.674  80.718  14.314  0.00  0.00    -0.572 OA
ATOM     28  O3  IDS d 903     -33.273  79.883  16.389  0.00  0.00    -0.390 OA
ATOM     29  O61 IDS d 903     -31.626  82.109  20.983  0.00  0.00    -0.646 OA
ATOM     30  C1  IDS d 903     -35.671  80.571  19.146  0.00  0.00     0.161 C 
ATOM     31  C4  IDS d 903     -32.786  80.622  18.624  0.00  0.00     0.103 C 
ATOM     32  C2  IDS d 903     -35.083  80.663  17.731  0.00  0.00     0.134 C 
ATOM     33  S   IDS d 903     -36.617  80.887  15.439  0.00  0.00     0.252 S 
ATOM     34  C5  IDS d 903     -33.513  81.296  19.794  0.00  0.00     0.152 C 
ATOM     35  O62 IDS d 903     -32.876  80.611  21.988  0.00  0.00    -0.646 OA
ATOM     36  H   IDS d 903     -33.932  78.894  18.038  0.00  0.00     0.091 H 
ATOM     37  H   IDS d 903     -33.135  80.793  16.085  0.00  0.00     0.210 HD
ATOM     38  H   IDS d 903     -36.287  79.700  19.230  0.00  0.00     0.133 H 
ATOM     39  H   IDS d 903     -32.274  81.364  18.048  0.00  0.00     0.092 H 
ATOM     40  H   IDS d 903     -34.924  81.682  17.449  0.00  0.00     0.097 H 
ATOM     41  H   IDS d 903     -33.805  82.289  19.522  0.00  0.00     0.104 H 
ATOM     42  O6  SGN d 902     -27.807  81.205  16.716  0.00  0.00    -0.254 OA
ATOM     43  C1  SGN d 902     -30.924  79.128  18.238  0.00  0.00     0.150 C 
ATOM     44  C5  SGN d 902     -29.284  80.878  18.572  0.00  0.00     0.091 C 
ATOM     45  N   SGN d 902     -30.859  77.123  19.610  0.00  0.00    -0.210 NA
ATOM     46  S1  SGN d 902     -31.546  75.800  18.658  0.00  0.00     0.156 S 
ATOM     47  C4  SGN d 902     -28.356  79.905  19.299  0.00  0.00     0.095 C 
ATOM     48  O5S SGN d 902     -26.725  82.673  14.802  0.00  0.00    -0.572 OA
ATOM     49  C2  SGN d 902     -30.033  78.119  18.959  0.00  0.00     0.081 C 
ATOM     50  S2  SGN d 902     -26.349  81.889  15.994  0.00  0.00     0.251 S 
ATOM     51  O3S SGN d 902     -32.157  76.342  17.430  0.00  0.00    -0.296 OA
ATOM     52  C6  SGN d 902     -28.467  81.889  17.780  0.00  0.00     0.067 C 
ATOM     53  O3  SGN d 902     -28.345  77.920  20.656  0.00  0.00    -0.391 OA
ATOM     54  O2S SGN d 902     -30.477  74.852  18.295  0.00  0.00    -0.296 OA
ATOM     55  O6S SGN d 902     -25.681  82.764  16.976  0.00  0.00    -0.572 OA
ATOM     56  C3  SGN d 902     -29.188  78.841  20.001  0.00  0.00     0.083 C 
ATOM     57  O5  SGN d 902     -30.103  80.144  17.647  0.00  0.00    -0.349 OA
ATOM     58  O1S SGN d 902     -32.573  75.105  19.456  0.00  0.00    -0.296 OA
ATOM     59  O4S SGN d 902     -25.436  80.798  15.604  0.00  0.00    -0.572 OA
ATOM     60  O4  SGN d 902     -27.585  80.611  20.273  0.00  0.00    -0.348 OA
ATOM     61  O1  SGN d 902     -31.870  79.668  19.164  0.00  0.00    -0.348 OA
ATOM     62  H   SGN d 902     -31.473  78.656  17.452  0.00  0.00     0.131 H 
ATOM     63  H   SGN d 902     -29.888  81.386  19.295  0.00  0.00     0.090 H 
ATOM     64  H   SGN d 902     -31.641  77.619  20.037  0.00  0.00     0.140 HD
ATOM     65  H   SGN d 902     -27.701  79.445  18.589  0.00  0.00     0.091 H 
ATOM     66  H   SGN d 902     -29.391  77.640  18.250  0.00  0.00     0.076 H 
ATOM     67  H   SGN d 902     -32.862  76.965  17.667  0.00  0.00     0.231 HD
ATOM     68  H   SGN d 902     -29.114  82.641  17.378  0.00  0.00     0.080 H 
ATOM     69  H   SGN d 902     -27.747  82.358  18.417  0.00  0.00     0.080 H 
ATOM     70  H   SGN d 902     -27.810  78.385  21.318  0.00  0.00     0.210 HD
ATOM     71  H   SGN d 902     -30.073  74.495  19.101  0.00  0.00     0.231 HD
ATOM     72  H   SGN d 902     -29.821  79.299  20.731  0.00  0.00     0.089 H 
ATOM     73  H   SGN d 902     -32.169  74.749  20.263  0.00  0.00     0.231 HD
ATOM     74  O4S SGN d 904     -38.919  76.959  20.397  0.00  0.00    -0.572 OA
ATOM     75  O5S SGN d 904     -40.408  77.577  18.605  0.00  0.00    -0.572 OA
ATOM     76  C3  SGN d 904     -37.065  82.827  21.400  0.00  0.00     0.083 C 
ATOM     77  N   SGN d 904     -37.910  83.960  23.358  0.00  0.00    -0.210 NA
ATOM     78  O5  SGN d 904     -39.722  81.941  20.903  0.00  0.00    -0.350 OA
ATOM     79  O6S SGN d 904     -38.029  77.807  18.317  0.00  0.00    -0.572 OA
ATOM     80  O3S SGN d 904     -38.803  82.527  25.370  0.00  0.00    -0.296 OA
ATOM     81  O4  SGN d 904     -36.419  81.763  19.372  0.00  0.00    -0.348 OA
ATOM     82  S2  SGN d 904     -39.142  77.900  19.282  0.00  0.00     0.251 S 
ATOM     83  O1  SGN d 904     -39.557  84.281  21.127  0.00  0.00    -0.369 OA
ATOM     84  O3  SGN d 904     -35.818  82.622  22.026  0.00  0.00    -0.391 OA
ATOM     85  O2S SGN d 904     -37.951  84.729  25.888  0.00  0.00    -0.296 OA
ATOM     86  C5  SGN d 904     -38.760  81.863  19.846  0.00  0.00     0.091 C 
ATOM     87  O6  SGN d 904     -39.227  79.541  19.909  0.00  0.00    -0.254 OA
ATOM     88  O1S SGN d 904     -40.080  84.481  24.771  0.00  0.00    -0.296 OA
ATOM     89  C1  SGN d 904     -39.512  83.026  21.812  0.00  0.00     0.147 C 
ATOM     90  C4  SGN d 904     -37.361  81.687  20.439  0.00  0.00     0.095 C 
ATOM     91  C2  SGN d 904     -38.147  82.855  22.463  0.00  0.00     0.081 C 
ATOM     92  C6  SGN d 904     -39.110  80.645  19.013  0.00  0.00     0.067 C 
ATOM     93  S1  SGN d 904     -38.723  83.928  24.917  0.00  0.00     0.156 S 
ATOM     94  H   SGN d 904     -37.040  83.751  20.861  0.00  0.00     0.089 H 
ATOM     95  H   SGN d 904     -38.202  84.811  22.877  0.00  0.00     0.140 HD
ATOM     96  H   SGN d 904     -37.908  82.167  25.466  0.00  0.00     0.231 HD
ATOM     97  H   SGN d 904     -40.427  84.391  20.712  0.00  0.00     0.212 HD
ATOM     98  H   SGN d 904     -35.836  81.785  22.516  0.00  0.00     0.210 HD
ATOM     99  H   SGN d 904     -37.059  84.357  25.978  0.00  0.00     0.231 HD
ATOM    100  H   SGN d 904     -38.772  82.752  19.252  0.00  0.00     0.090 H 
ATOM    101  H   SGN d 904     -40.580  83.949  24.132  0.00  0.00     0.231 HD
ATOM    102  H   SGN d 904     -40.286  83.019  22.551  0.00  0.00     0.131 H 
ATOM    103  H   SGN d 904     -37.301  80.750  20.952  0.00  0.00     0.091 H 
ATOM    104  H   SGN d 904     -38.126  81.934  23.006  0.00  0.00     0.076 H 
ATOM    105  H   SGN d 904     -38.338  80.456  18.297  0.00  0.00     0.080 H 
ATOM    106  H   SGN d 904     -40.024  80.800  18.480  0.00  0.00     0.080 H 
ENDROOT
TORSDOF 33
ENDMDL
MODEL 44
REMARK VINA RESULT:      -6.9      4.083      6.448
REMARK  0 active torsions:
REMARK  status: ('A' for Active; 'I' for Inactive)
REMARK       I    between atoms: C3_1  and  O3_18 
REMARK       I    between atoms: O6_3  and  C6_41 
REMARK       I    between atoms: O6_3  and  S2_27 
REMARK       I    between atoms: C1_4  and  O1_67 
REMARK       I    between atoms: O2_6  and  C2_60 
REMARK       I    between atoms: O2_6  and  S_64 
REMARK       I    between atoms: C5_7  and  C6_41 
REMARK       I    between atoms: C6_9  and  C5_36 
REMARK       I    between atoms: N_10  and  C2_26 
REMARK       I    between atoms: N_10  and  S1_14 
REMARK       I    between atoms: O2_12  and  C2_39 
REMARK       I    between atoms: O2_12  and  S_34 
REMARK       I    between atoms: C3_13  and  O3_44 
REMARK       I    between atoms: S1_14  and  O1S_57 
REMARK       I    between atoms: S1_14  and  O2S_48 
REMARK       I    between atoms: S1_14  and  O3S_38 
REMARK       I    between atoms: C6_16  and  C5_68 
REMARK       I    between atoms: C4_17  and  O4_62 
REMARK       I    between atoms: N_21  and  C2_65 
REMARK       I    between atoms: N_21  and  S1_69 
REMARK       I    between atoms: C3_25  and  O3_30 
REMARK       I    between atoms: O3S_29  and  S1_69 
REMARK       I    between atoms: O4_31  and  C1_42 
REMARK       I    between atoms: O4_31  and  C4_63 
REMARK       I    between atoms: S2_35  and  O6_49 
REMARK       I    between atoms: O1_37  and  C1_61 
REMARK       I    between atoms: O2S_45  and  S1_69 
REMARK       I    between atoms: O3_46  and  C3_55 
REMARK       I    between atoms: C5_47  and  C6_66 
REMARK       I    between atoms: O6_49  and  C6_66 
REMARK       I    between atoms: O1S_52  and  S1_69 
REMARK       I    between atoms: C1_54  and  O4_62 
REMARK       I    between atoms: C4_59  and  O1_67 
ROOT
ATOM      1  C3  UAP d 901     -36.159  76.709  22.970  0.00  0.00     0.086 C 
ATOM      2  O1S UAP d 901     -34.737  72.380  23.918  0.00  0.00    -0.572 OA
ATOM      3  C6  UAP d 901     -37.911  77.488  19.848  0.00  0.00     0.233 C 
ATOM      4  O2  UAP d 901     -35.089  74.598  22.505  0.00  0.00    -0.244 OA
ATOM      5  O3  UAP d 901     -35.734  77.746  23.828  0.00  0.00    -0.389 OA
ATOM      6  O61 UAP d 901     -38.842  78.182  20.317  0.00  0.00    -0.642 OA
ATOM      7  O5  UAP d 901     -36.001  76.227  20.184  0.00  0.00    -0.311 OA
ATOM      8  O2S UAP d 901     -34.910  74.444  25.148  0.00  0.00    -0.572 OA
ATOM      9  S   UAP d 901     -34.385  73.812  23.923  0.00  0.00     0.252 S 
ATOM     10  C5  UAP d 901     -36.995  76.982  20.674  0.00  0.00     0.147 C 
ATOM     11  C2  UAP d 901     -34.953  76.008  22.345  0.00  0.00     0.135 C 
ATOM     12  O62 UAP d 901     -37.827  77.250  18.624  0.00  0.00    -0.642 OA
ATOM     13  O3S UAP d 901     -32.918  73.959  23.885  0.00  0.00    -0.572 OA
ATOM     14  C4  UAP d 901     -37.093  77.229  21.993  0.00  0.00    -0.034 C 
ATOM     15  C1  UAP d 901     -34.758  76.341  20.872  0.00  0.00     0.167 C 
ATOM     16  H   UAP d 901     -36.683  75.962  23.530  0.00  0.00     0.093 H 
ATOM     17  H   UAP d 901     -35.260  78.418  23.313  0.00  0.00     0.210 HD
ATOM     18  H   UAP d 901     -34.084  76.365  22.856  0.00  0.00     0.097 H 
ATOM     19  H   UAP d 901     -37.872  77.819  22.325  0.00  0.00     0.085 H 
ATOM     20  H   UAP d 901     -34.071  75.650  20.429  0.00  0.00     0.134 H 
ATOM     21  O1S IDS d 903     -25.297  82.476  15.143  0.00  0.00    -0.572 OA
ATOM     22  O2  IDS d 903     -27.538  82.156  16.513  0.00  0.00    -0.244 OA
ATOM     23  O5  IDS d 903     -29.595  82.791  19.380  0.00  0.00    -0.340 OA
ATOM     24  C6  IDS d 903     -30.783  81.457  20.933  0.00  0.00     0.206 C 
ATOM     25  O2S IDS d 903     -25.157  81.210  17.193  0.00  0.00    -0.572 OA
ATOM     26  C3  IDS d 903     -29.448  81.060  17.409  0.00  0.00     0.094 C 
ATOM     27  O3S IDS d 903     -26.216  80.250  15.250  0.00  0.00    -0.572 OA
ATOM     28  O3  IDS d 903     -29.216  79.966  16.549  0.00  0.00    -0.390 OA
ATOM     29  O61 IDS d 903     -30.945  80.422  21.606  0.00  0.00    -0.646 OA
ATOM     30  C1  IDS d 903     -28.420  82.980  18.575  0.00  0.00     0.161 C 
ATOM     31  C4  IDS d 903     -30.061  80.553  18.721  0.00  0.00     0.103 C 
ATOM     32  C2  IDS d 903     -28.133  81.729  17.733  0.00  0.00     0.134 C 
ATOM     33  S   IDS d 903     -25.983  81.498  16.007  0.00  0.00     0.252 S 
ATOM     34  C5  IDS d 903     -29.681  81.470  19.891  0.00  0.00     0.152 C 
ATOM     35  O62 IDS d 903     -31.480  82.486  21.083  0.00  0.00    -0.646 OA
ATOM     36  H   IDS d 903     -30.109  81.751  16.930  0.00  0.00     0.091 H 
ATOM     37  H   IDS d 903     -28.617  79.338  16.981  0.00  0.00     0.210 HD
ATOM     38  H   IDS d 903     -28.586  83.822  17.936  0.00  0.00     0.133 H 
ATOM     39  H   IDS d 903     -29.692  79.567  18.907  0.00  0.00     0.092 H 
ATOM     40  H   IDS d 903     -27.490  81.054  18.258  0.00  0.00     0.097 H 
ATOM     41  H   IDS d 903     -28.762  81.142  20.330  0.00  0.00     0.104 H 
ATOM     42  O6  SGN d 902     -32.149  75.614  18.598  0.00  0.00    -0.254 OA
ATOM     43  C1  SGN d 902     -32.034  79.562  17.735  0.00  0.00     0.150 C 
ATOM     44  C5  SGN d 902     -32.187  77.854  19.443  0.00  0.00     0.091 C 
ATOM     45  N   SGN d 902     -33.905  81.064  17.343  0.00  0.00    -0.210 NA
ATOM     46  S1  SGN d 902     -33.846  81.562  15.647  0.00  0.00     0.156 S 
ATOM     47  C4  SGN d 902     -33.713  77.959  19.447  0.00  0.00     0.095 C 
ATOM     48  O5S SGN d 902     -31.125  73.183  18.427  0.00  0.00    -0.572 OA
ATOM     49  C2  SGN d 902     -33.553  79.705  17.702  0.00  0.00     0.081 C 
ATOM     50  S2  SGN d 902     -32.374  73.876  18.798  0.00  0.00     0.251 S 
ATOM     51  O3S SGN d 902     -32.575  81.118  15.046  0.00  0.00    -0.296 OA
ATOM     52  C6  SGN d 902     -31.760  76.418  19.711  0.00  0.00     0.067 C 
ATOM     53  O3  SGN d 902     -35.529  79.484  19.050  0.00  0.00    -0.391 OA
ATOM     54  O2S SGN d 902     -34.972  80.950  14.918  0.00  0.00    -0.296 OA
ATOM     55  O6S SGN d 902     -32.708  73.584  20.205  0.00  0.00    -0.572 OA
ATOM     56  C3  SGN d 902     -34.124  79.377  19.076  0.00  0.00     0.083 C 
ATOM     57  O5  SGN d 902     -31.693  78.232  18.149  0.00  0.00    -0.349 OA
ATOM     58  O1S SGN d 902     -33.944  83.031  15.565  0.00  0.00    -0.296 OA
ATOM     59  O4S SGN d 902     -33.473  73.419  17.926  0.00  0.00    -0.572 OA
ATOM     60  O4  SGN d 902     -34.214  77.654  20.749  0.00  0.00    -0.348 OA
ATOM     61  O1  SGN d 902     -31.485  80.556  18.602  0.00  0.00    -0.348 OA
ATOM     62  H   SGN d 902     -31.617  79.716  16.761  0.00  0.00     0.131 H 
ATOM     63  H   SGN d 902     -31.795  78.498  20.203  0.00  0.00     0.090 H 
ATOM     64  H   SGN d 902     -33.272  81.678  17.855  0.00  0.00     0.140 HD
ATOM     65  H   SGN d 902     -34.115  77.266  18.737  0.00  0.00     0.091 H 
ATOM     66  H   SGN d 902     -33.959  79.030  16.978  0.00  0.00     0.076 H 
ATOM     67  H   SGN d 902     -31.832  81.520  15.524  0.00  0.00     0.231 HD
ATOM     68  H   SGN d 902     -30.697  76.374  19.834  0.00  0.00     0.080 H 
ATOM     69  H   SGN d 902     -32.226  76.057  20.604  0.00  0.00     0.080 H 
ATOM     70  H   SGN d 902     -35.886  79.274  19.927  0.00  0.00     0.210 HD
ATOM     71  H   SGN d 902     -35.809  81.240  15.312  0.00  0.00     0.231 HD
ATOM     72  H   SGN d 902     -33.745  80.065  19.803  0.00  0.00     0.089 H 
ATOM     73  H   SGN d 902     -34.782  83.321  15.961  0.00  0.00     0.231 HD
ATOM     74  O4S SGN d 904     -29.041  87.478  16.446  0.00  0.00    -0.572 OA
ATOM     75  O5S SGN d 904     -26.898  87.336  15.350  0.00  0.00    -0.572 OA
ATOM     76  C3  SGN d 904     -27.107  84.362  21.488  0.00  0.00     0.083 C 
ATOM     77  N   SGN d 904     -26.713  85.619  23.510  0.00  0.00    -0.210 NA
ATOM     78  O5  SGN d 904     -25.683  86.386  20.085  0.00  0.00    -0.350 OA
ATOM     79  O6S SGN d 904     -28.198  85.341  15.700  0.00  0.00    -0.572 OA
ATOM     80  O3S SGN d 904     -27.882  87.952  23.806  0.00  0.00    -0.296 OA
ATOM     81  O4  SGN d 904     -27.297  83.184  19.428  0.00  0.00    -0.348 OA
ATOM     82  S2  SGN d 904     -27.831  86.655  16.263  0.00  0.00     0.251 S 
ATOM     83  O1  SGN d 904     -24.456  85.467  21.875  0.00  0.00    -0.369 OA
ATOM     84  O3  SGN d 904     -28.327  83.874  21.998  0.00  0.00    -0.391 OA
ATOM     85  O2S SGN d 904     -27.321  86.746  25.824  0.00  0.00    -0.296 OA
ATOM     86  C5  SGN d 904     -25.902  85.125  19.442  0.00  0.00     0.091 C 
ATOM     87  O6  SGN d 904     -27.044  86.417  17.817  0.00  0.00    -0.254 OA
ATOM     88  O1S SGN d 904     -25.582  87.788  24.508  0.00  0.00    -0.296 OA
ATOM     89  C1  SGN d 904     -25.554  86.308  21.508  0.00  0.00     0.147 C 
ATOM     90  C4  SGN d 904     -27.190  84.496  19.975  0.00  0.00     0.095 C 
ATOM     91  C2  SGN d 904     -26.842  85.733  22.080  0.00  0.00     0.081 C 
ATOM     92  C6  SGN d 904     -26.053  85.401  17.959  0.00  0.00     0.067 C 
ATOM     93  S1  SGN d 904     -26.879  87.091  24.458  0.00  0.00     0.156 S 
ATOM     94  H   SGN d 904     -26.322  83.681  21.743  0.00  0.00     0.089 H 
ATOM     95  H   SGN d 904     -25.789  85.232  23.705  0.00  0.00     0.140 HD
ATOM     96  H   SGN d 904     -28.734  87.491  23.776  0.00  0.00     0.231 HD
ATOM     97  H   SGN d 904     -23.634  85.832  21.511  0.00  0.00     0.212 HD
ATOM     98  H   SGN d 904     -29.042  84.488  21.769  0.00  0.00     0.210 HD
ATOM     99  H   SGN d 904     -28.176  86.288  25.781  0.00  0.00     0.231 HD
ATOM    100  H   SGN d 904     -25.090  84.455  19.629  0.00  0.00     0.090 H 
ATOM    101  H   SGN d 904     -25.299  88.011  23.607  0.00  0.00     0.231 HD
ATOM    102  H   SGN d 904     -25.372  87.287  21.898  0.00  0.00     0.131 H 
ATOM    103  H   SGN d 904     -28.027  85.105  19.707  0.00  0.00     0.091 H 
ATOM    104  H   SGN d 904     -27.657  86.381  21.836  0.00  0.00     0.076 H 
ATOM    105  H   SGN d 904     -26.364  84.513  17.450  0.00  0.00     0.080 H 
ATOM    106  H   SGN d 904     -25.122  85.716  17.535  0.00  0.00     0.080 H 
ENDROOT
TORSDOF 33
ENDMDL
MODEL 45
REMARK VINA RESULT:      -6.9      4.254     10.840
REMARK  0 active torsions:
REMARK  status: ('A' for Active; 'I' for Inactive)
REMARK       I    between atoms: C3_1  and  O3_18 
REMARK       I    between atoms: O6_3  and  C6_41 
REMARK       I    between atoms: O6_3  and  S2_27 
REMARK       I    between atoms: C1_4  and  O1_67 
REMARK       I    between atoms: O2_6  and  C2_60 
REMARK       I    between atoms: O2_6  and  S_64 
REMARK       I    between atoms: C5_7  and  C6_41 
REMARK       I    between atoms: C6_9  and  C5_36 
REMARK       I    between atoms: N_10  and  C2_26 
REMARK       I    between atoms: N_10  and  S1_14 
REMARK       I    between atoms: O2_12  and  C2_39 
REMARK       I    between atoms: O2_12  and  S_34 
REMARK       I    between atoms: C3_13  and  O3_44 
REMARK       I    between atoms: S1_14  and  O1S_57 
REMARK       I    between atoms: S1_14  and  O2S_48 
REMARK       I    between atoms: S1_14  and  O3S_38 
REMARK       I    between atoms: C6_16  and  C5_68 
REMARK       I    between atoms: C4_17  and  O4_62 
REMARK       I    between atoms: N_21  and  C2_65 
REMARK       I    between atoms: N_21  and  S1_69 
REMARK       I    between atoms: C3_25  and  O3_30 
REMARK       I    between atoms: O3S_29  and  S1_69 
REMARK       I    between atoms: O4_31  and  C1_42 
REMARK       I    between atoms: O4_31  and  C4_63 
REMARK       I    between atoms: S2_35  and  O6_49 
REMARK       I    between atoms: O1_37  and  C1_61 
REMARK       I    between atoms: O2S_45  and  S1_69 
REMARK       I    between atoms: O3_46  and  C3_55 
REMARK       I    between atoms: C5_47  and  C6_66 
REMARK       I    between atoms: O6_49  and  C6_66 
REMARK       I    between atoms: O1S_52  and  S1_69 
REMARK       I    between atoms: C1_54  and  O4_62 
REMARK       I    between atoms: C4_59  and  O1_67 
ROOT
ATOM      1  C3  UAP d 901     -22.986  83.264  15.920  0.00  0.00     0.086 C 
ATOM      2  O1S UAP d 901     -19.724  83.782  19.199  0.00  0.00    -0.572 OA
ATOM      3  C6  UAP d 901     -24.846  86.143  14.625  0.00  0.00     0.233 C 
ATOM      4  O2  UAP d 901     -22.074  84.072  18.002  0.00  0.00    -0.244 OA
ATOM      5  O3  UAP d 901     -23.371  81.951  15.573  0.00  0.00    -0.389 OA
ATOM      6  O61 UAP d 901     -24.767  85.889  13.401  0.00  0.00    -0.642 OA
ATOM      7  O5  UAP d 901     -24.353  85.579  16.813  0.00  0.00    -0.311 OA
ATOM      8  O2S UAP d 901     -20.440  81.997  17.749  0.00  0.00    -0.572 OA
ATOM      9  S   UAP d 901     -20.884  82.994  18.740  0.00  0.00     0.252 S 
ATOM     10  C5  UAP d 901     -24.284  85.310  15.501  0.00  0.00     0.147 C 
ATOM     11  C2  UAP d 901     -23.245  83.520  17.405  0.00  0.00     0.135 C 
ATOM     12  O62 UAP d 901     -25.432  87.164  15.043  0.00  0.00    -0.642 OA
ATOM     13  O3S UAP d 901     -21.497  82.304  19.890  0.00  0.00    -0.572 OA
ATOM     14  C4  UAP d 901     -23.644  84.216  15.049  0.00  0.00    -0.034 C 
ATOM     15  C1  UAP d 901     -24.434  84.436  17.662  0.00  0.00     0.167 C 
ATOM     16  H   UAP d 901     -21.934  83.388  15.774  0.00  0.00     0.093 H 
ATOM     17  H   UAP d 901     -24.326  81.847  15.709  0.00  0.00     0.210 HD
ATOM     18  H   UAP d 901     -23.487  82.575  17.847  0.00  0.00     0.097 H 
ATOM     19  H   UAP d 901     -23.620  84.048  14.032  0.00  0.00     0.085 H 
ATOM     20  H   UAP d 901     -24.420  84.776  18.676  0.00  0.00     0.134 H 
ATOM     21  O1S IDS d 903     -35.457  81.993  23.361  0.00  0.00    -0.572 OA
ATOM     22  O2  IDS d 903     -33.667  82.067  21.414  0.00  0.00    -0.244 OA
ATOM     23  O5  IDS d 903     -31.738  80.471  18.847  0.00  0.00    -0.340 OA
ATOM     24  C6  IDS d 903     -29.444  80.374  18.274  0.00  0.00     0.206 C 
ATOM     25  O2S IDS d 903     -33.353  80.885  23.766  0.00  0.00    -0.572 OA
ATOM     26  C3  IDS d 903     -31.701  82.700  20.237  0.00  0.00     0.094 C 
ATOM     27  O3S IDS d 903     -33.464  83.294  23.744  0.00  0.00    -0.572 OA
ATOM     28  O3  IDS d 903     -31.492  83.746  21.160  0.00  0.00    -0.390 OA
ATOM     29  O61 IDS d 903     -28.232  80.374  18.559  0.00  0.00    -0.646 OA
ATOM     30  C1  IDS d 903     -32.745  80.491  19.872  0.00  0.00     0.161 C 
ATOM     31  C4  IDS d 903     -30.345  82.173  19.752  0.00  0.00     0.103 C 
ATOM     32  C2  IDS d 903     -32.429  81.567  20.921  0.00  0.00     0.134 C 
ATOM     33  S   IDS d 903     -34.000  82.054  23.145  0.00  0.00     0.252 S 
ATOM     34  C5  IDS d 903     -30.439  80.689  19.374  0.00  0.00     0.152 C 
ATOM     35  O62 IDS d 903     -29.877  80.118  17.128  0.00  0.00    -0.646 OA
ATOM     36  H   IDS d 903     -32.275  83.067  19.412  0.00  0.00     0.091 H 
ATOM     37  H   IDS d 903     -30.973  83.416  21.909  0.00  0.00     0.210 HD
ATOM     38  H   IDS d 903     -33.688  80.696  19.410  0.00  0.00     0.133 H 
ATOM     39  H   IDS d 903     -29.634  82.294  20.543  0.00  0.00     0.092 H 
ATOM     40  H   IDS d 903     -31.833  81.165  21.713  0.00  0.00     0.097 H 
ATOM     41  H   IDS d 903     -30.239  80.079  20.231  0.00  0.00     0.104 H 
ATOM     42  O6  SGN d 902     -26.122  85.361  20.628  0.00  0.00    -0.254 OA
ATOM     43  C1  SGN d 902     -29.561  84.257  18.812  0.00  0.00     0.150 C 
ATOM     44  C5  SGN d 902     -27.240  83.740  19.267  0.00  0.00     0.091 C 
ATOM     45  N   SGN d 902     -30.276  84.743  16.540  0.00  0.00    -0.210 NA
ATOM     46  S1  SGN d 902     -31.674  85.822  16.638  0.00  0.00     0.156 S 
ATOM     47  C4  SGN d 902     -26.812  84.374  17.943  0.00  0.00     0.095 C 
ATOM     48  O5S SGN d 902     -24.785  86.100  22.786  0.00  0.00    -0.572 OA
ATOM     49  C2  SGN d 902     -29.184  84.900  17.479  0.00  0.00     0.081 C 
ATOM     50  S2  SGN d 902     -24.658  86.067  21.316  0.00  0.00     0.251 S 
ATOM     51  O3S SGN d 902     -32.127  85.917  18.037  0.00  0.00    -0.296 OA
ATOM     52  C6  SGN d 902     -26.171  83.968  20.327  0.00  0.00     0.067 C 
ATOM     53  O3  SGN d 902     -27.566  84.828  15.706  0.00  0.00    -0.391 OA
ATOM     54  O2S SGN d 902     -31.292  87.162  16.155  0.00  0.00    -0.296 OA
ATOM     55  O6S SGN d 902     -23.493  85.245  20.934  0.00  0.00    -0.572 OA
ATOM     56  C3  SGN d 902     -27.935  84.226  16.925  0.00  0.00     0.083 C 
ATOM     57  O5  SGN d 902     -28.453  84.364  19.716  0.00  0.00    -0.349 OA
ATOM     58  O1S SGN d 902     -32.764  85.287  15.800  0.00  0.00    -0.296 OA
ATOM     59  O4S SGN d 902     -24.484  87.438  20.800  0.00  0.00    -0.572 OA
ATOM     60  O4  SGN d 902     -25.646  83.714  17.448  0.00  0.00    -0.348 OA
ATOM     61  O1  SGN d 902     -29.949  82.900  18.589  0.00  0.00    -0.348 OA
ATOM     62  H   SGN d 902     -30.393  84.763  19.255  0.00  0.00     0.131 H 
ATOM     63  H   SGN d 902     -27.385  82.690  19.117  0.00  0.00     0.090 H 
ATOM     64  H   SGN d 902     -30.627  83.791  16.650  0.00  0.00     0.140 HD
ATOM     65  H   SGN d 902     -26.599  85.410  18.101  0.00  0.00     0.091 H 
ATOM     66  H   SGN d 902     -28.991  85.942  17.627  0.00  0.00     0.076 H 
ATOM     67  H   SGN d 902     -32.380  85.036  18.357  0.00  0.00     0.231 HD
ATOM     68  H   SGN d 902     -26.416  83.416  21.211  0.00  0.00     0.080 H 
ATOM     69  H   SGN d 902     -25.220  83.637  19.965  0.00  0.00     0.080 H 
ATOM     70  H   SGN d 902     -26.771  84.395  15.359  0.00  0.00     0.210 HD
ATOM     71  H   SGN d 902     -30.993  87.101  15.234  0.00  0.00     0.231 HD
ATOM     72  H   SGN d 902     -28.128  83.189  16.747  0.00  0.00     0.089 H 
ATOM     73  H   SGN d 902     -32.464  85.226  14.879  0.00  0.00     0.231 HD
ATOM     74  O4S SGN d 904     -37.101  80.463  17.386  0.00  0.00    -0.572 OA
ATOM     75  O5S SGN d 904     -38.358  80.422  19.443  0.00  0.00    -0.572 OA
ATOM     76  C3  SGN d 904     -32.445  77.027  19.708  0.00  0.00     0.083 C 
ATOM     77  N   SGN d 904     -32.283  74.723  19.007  0.00  0.00    -0.210 NA
ATOM     78  O5  SGN d 904     -35.231  76.600  20.087  0.00  0.00    -0.350 OA
ATOM     79  O6S SGN d 904     -36.262  81.603  19.344  0.00  0.00    -0.572 OA
ATOM     80  O3S SGN d 904     -33.426  73.994  16.757  0.00  0.00    -0.296 OA
ATOM     81  O4  SGN d 904     -32.754  79.234  20.543  0.00  0.00    -0.348 OA
ATOM     82  S2  SGN d 904     -37.007  80.425  18.858  0.00  0.00     0.251 S 
ATOM     83  O1  SGN d 904     -33.894  75.057  21.262  0.00  0.00    -0.369 OA
ATOM     84  O3  SGN d 904     -31.381  77.388  18.855  0.00  0.00    -0.391 OA
ATOM     85  O2S SGN d 904     -31.523  72.697  17.487  0.00  0.00    -0.296 OA
ATOM     86  C5  SGN d 904     -34.623  77.751  20.683  0.00  0.00     0.091 C 
ATOM     87  O6  SGN d 904     -36.163  78.964  19.353  0.00  0.00    -0.254 OA
ATOM     88  O1S SGN d 904     -33.644  72.490  18.628  0.00  0.00    -0.296 OA
ATOM     89  C1  SGN d 904     -34.366  75.466  19.975  0.00  0.00     0.147 C 
ATOM     90  C4  SGN d 904     -33.421  78.186  19.845  0.00  0.00     0.095 C 
ATOM     91  C2  SGN d 904     -33.179  75.847  19.101  0.00  0.00     0.081 C 
ATOM     92  C6  SGN d 904     -35.662  78.855  20.684  0.00  0.00     0.067 C 
ATOM     93  S1  SGN d 904     -32.737  73.413  17.923  0.00  0.00     0.156 S 
ATOM     94  H   SGN d 904     -32.053  76.775  20.671  0.00  0.00     0.089 H 
ATOM     95  H   SGN d 904     -32.188  74.327  19.943  0.00  0.00     0.140 HD
ATOM     96  H   SGN d 904     -32.826  74.600  16.296  0.00  0.00     0.231 HD
ATOM     97  H   SGN d 904     -34.648  74.813  21.821  0.00  0.00     0.212 HD
ATOM     98  H   SGN d 904     -31.732  77.618  17.981  0.00  0.00     0.210 HD
ATOM     99  H   SGN d 904     -30.932  73.312  17.024  0.00  0.00     0.231 HD
ATOM    100  H   SGN d 904     -34.289  77.535  21.676  0.00  0.00     0.090 H 
ATOM    101  H   SGN d 904     -34.439  72.970  18.911  0.00  0.00     0.231 HD
ATOM    102  H   SGN d 904     -34.908  74.652  19.542  0.00  0.00     0.131 H 
ATOM    103  H   SGN d 904     -33.750  78.503  18.877  0.00  0.00     0.091 H 
ATOM    104  H   SGN d 904     -33.531  76.118  18.127  0.00  0.00     0.076 H 
ATOM    105  H   SGN d 904     -35.215  79.779  20.984  0.00  0.00     0.080 H 
ATOM    106  H   SGN d 904     -36.452  78.632  21.370  0.00  0.00     0.080 H 
ENDROOT
TORSDOF 33
ENDMDL
MODEL 46
REMARK VINA RESULT:      -6.9      4.614     10.035
REMARK  0 active torsions:
REMARK  status: ('A' for Active; 'I' for Inactive)
REMARK       I    between atoms: C3_1  and  O3_18 
REMARK       I    between atoms: O6_3  and  C6_41 
REMARK       I    between atoms: O6_3  and  S2_27 
REMARK       I    between atoms: C1_4  and  O1_67 
REMARK       I    between atoms: O2_6  and  C2_60 
REMARK       I    between atoms: O2_6  and  S_64 
REMARK       I    between atoms: C5_7  and  C6_41 
REMARK       I    between atoms: C6_9  and  C5_36 
REMARK       I    between atoms: N_10  and  C2_26 
REMARK       I    between atoms: N_10  and  S1_14 
REMARK       I    between atoms: O2_12  and  C2_39 
REMARK       I    between atoms: O2_12  and  S_34 
REMARK       I    between atoms: C3_13  and  O3_44 
REMARK       I    between atoms: S1_14  and  O1S_57 
REMARK       I    between atoms: S1_14  and  O2S_48 
REMARK       I    between atoms: S1_14  and  O3S_38 
REMARK       I    between atoms: C6_16  and  C5_68 
REMARK       I    between atoms: C4_17  and  O4_62 
REMARK       I    between atoms: N_21  and  C2_65 
REMARK       I    between atoms: N_21  and  S1_69 
REMARK       I    between atoms: C3_25  and  O3_30 
REMARK       I    between atoms: O3S_29  and  S1_69 
REMARK       I    between atoms: O4_31  and  C1_42 
REMARK       I    between atoms: O4_31  and  C4_63 
REMARK       I    between atoms: S2_35  and  O6_49 
REMARK       I    between atoms: O1_37  and  C1_61 
REMARK       I    between atoms: O2S_45  and  S1_69 
REMARK       I    between atoms: O3_46  and  C3_55 
REMARK       I    between atoms: C5_47  and  C6_66 
REMARK       I    between atoms: O6_49  and  C6_66 
REMARK       I    between atoms: O1S_52  and  S1_69 
REMARK       I    between atoms: C1_54  and  O4_62 
REMARK       I    between atoms: C4_59  and  O1_67 
ROOT
ATOM      1  C3  UAP d 901     -35.715  80.757  20.924  0.00  0.00     0.086 C 
ATOM      2  O1S UAP d 901     -38.014  77.841  18.117  0.00  0.00    -0.572 OA
ATOM      3  C6  UAP d 901     -36.180  84.383  20.681  0.00  0.00     0.233 C 
ATOM      4  O2  UAP d 901     -36.545  79.939  18.812  0.00  0.00    -0.244 OA
ATOM      5  O3  UAP d 901     -34.697  80.220  21.741  0.00  0.00    -0.389 OA
ATOM      6  O61 UAP d 901     -36.308  84.643  21.899  0.00  0.00    -0.642 OA
ATOM      7  O5  UAP d 901     -35.851  82.830  18.998  0.00  0.00    -0.311 OA
ATOM      8  O2S UAP d 901     -36.650  77.616  20.089  0.00  0.00    -0.572 OA
ATOM      9  S   UAP d 901     -36.716  78.182  18.729  0.00  0.00     0.252 S 
ATOM     10  C5  UAP d 901     -35.977  83.121  20.302  0.00  0.00     0.147 C 
ATOM     11  C2  UAP d 901     -35.402  80.503  19.448  0.00  0.00     0.135 C 
ATOM     12  O62 UAP d 901     -36.249  85.278  19.811  0.00  0.00    -0.642 OA
ATOM     13  O3S UAP d 901     -35.624  77.622  17.912  0.00  0.00    -0.572 OA
ATOM     14  C4  UAP d 901     -35.914  82.157  21.237  0.00  0.00    -0.034 C 
ATOM     15  C1  UAP d 901     -34.963  81.755  18.701  0.00  0.00     0.167 C 
ATOM     16  H   UAP d 901     -36.643  80.262  21.122  0.00  0.00     0.093 H 
ATOM     17  H   UAP d 901     -33.861  80.674  21.555  0.00  0.00     0.210 HD
ATOM     18  H   UAP d 901     -34.577  79.824  19.418  0.00  0.00     0.097 H 
ATOM     19  H   UAP d 901     -36.012  82.428  22.228  0.00  0.00     0.085 H 
ATOM     20  H   UAP d 901     -34.996  81.581  17.646  0.00  0.00     0.134 H 
ATOM     21  O1S IDS d 903     -23.840  84.500  13.344  0.00  0.00    -0.572 OA
ATOM     22  O2  IDS d 903     -25.634  84.234  15.269  0.00  0.00    -0.244 OA
ATOM     23  O5  IDS d 903     -26.660  82.978  18.467  0.00  0.00    -0.340 OA
ATOM     24  C6  IDS d 903     -28.510  81.746  19.282  0.00  0.00     0.206 C 
ATOM     25  O2S IDS d 903     -24.770  82.299  13.677  0.00  0.00    -0.572 OA
ATOM     26  C3  IDS d 903     -27.763  83.945  16.288  0.00  0.00     0.094 C 
ATOM     27  O3S IDS d 903     -26.110  84.038  12.679  0.00  0.00    -0.572 OA
ATOM     28  O3  IDS d 903     -28.384  84.176  15.042  0.00  0.00    -0.390 OA
ATOM     29  O61 IDS d 903     -29.414  80.899  19.161  0.00  0.00    -0.646 OA
ATOM     30  C1  IDS d 903     -25.700  83.197  17.421  0.00  0.00     0.161 C 
ATOM     31  C4  IDS d 903     -28.604  82.950  17.097  0.00  0.00     0.103 C 
ATOM     32  C2  IDS d 903     -26.400  83.334  16.062  0.00  0.00     0.134 C 
ATOM     33  S   IDS d 903     -25.060  83.744  13.677  0.00  0.00     0.252 S 
ATOM     34  C5  IDS d 903     -27.719  82.132  18.047  0.00  0.00     0.152 C 
ATOM     35  O62 IDS d 903     -28.219  82.286  20.374  0.00  0.00    -0.646 OA
ATOM     36  H   IDS d 903     -27.673  84.872  16.813  0.00  0.00     0.091 H 
ATOM     37  H   IDS d 903     -28.466  83.337  14.562  0.00  0.00     0.210 HD
ATOM     38  H   IDS d 903     -25.160  84.093  17.647  0.00  0.00     0.133 H 
ATOM     39  H   IDS d 903     -29.096  82.291  16.413  0.00  0.00     0.092 H 
ATOM     40  H   IDS d 903     -26.492  82.383  15.583  0.00  0.00     0.097 H 
ATOM     41  H   IDS d 903     -27.366  81.252  17.552  0.00  0.00     0.104 H 
ATOM     42  O6  SGN d 902     -33.660  82.245  15.451  0.00  0.00    -0.254 OA
ATOM     43  C1  SGN d 902     -30.619  84.286  17.163  0.00  0.00     0.150 C 
ATOM     44  C5  SGN d 902     -32.060  82.341  17.229  0.00  0.00     0.091 C 
ATOM     45  N   SGN d 902     -30.741  85.952  18.929  0.00  0.00    -0.210 NA
ATOM     46  S1  SGN d 902     -30.261  87.505  18.233  0.00  0.00     0.156 S 
ATOM     47  C4  SGN d 902     -33.004  83.043  18.207  0.00  0.00     0.095 C 
ATOM     48  O5S SGN d 902     -34.771  81.092  13.346  0.00  0.00    -0.572 OA
ATOM     49  C2  SGN d 902     -31.529  85.027  18.139  0.00  0.00     0.081 C 
ATOM     50  S2  SGN d 902     -35.109  81.573  14.701  0.00  0.00     0.251 S 
ATOM     51  O3S SGN d 902     -29.715  87.293  16.880  0.00  0.00    -0.296 OA
ATOM     52  C6  SGN d 902     -32.850  81.432  16.298  0.00  0.00     0.067 C 
ATOM     53  O3  SGN d 902     -33.072  84.698  19.949  0.00  0.00    -0.391 OA
ATOM     54  O2S SGN d 902     -31.439  88.389  18.151  0.00  0.00    -0.296 OA
ATOM     55  O6S SGN d 902     -35.607  80.450  15.518  0.00  0.00    -0.572 OA
ATOM     56  C3  SGN d 902     -32.211  84.024  19.060  0.00  0.00     0.083 C 
ATOM     57  O5  SGN d 902     -31.395  83.330  16.427  0.00  0.00    -0.349 OA
ATOM     58  O1S SGN d 902     -29.234  88.128  19.088  0.00  0.00    -0.296 OA
ATOM     59  O4S SGN d 902     -36.146  82.618  14.612  0.00  0.00    -0.572 OA
ATOM     60  O4  SGN d 902     -33.619  82.076  19.059  0.00  0.00    -0.348 OA
ATOM     61  O1  SGN d 902     -29.550  83.672  17.887  0.00  0.00    -0.348 OA
ATOM     62  H   SGN d 902     -30.185  84.964  16.458  0.00  0.00     0.131 H 
ATOM     63  H   SGN d 902     -31.352  81.764  17.786  0.00  0.00     0.090 H 
ATOM     64  H   SGN d 902     -29.883  85.464  19.186  0.00  0.00     0.140 HD
ATOM     65  H   SGN d 902     -33.757  83.566  17.655  0.00  0.00     0.091 H 
ATOM     66  H   SGN d 902     -32.271  85.571  17.592  0.00  0.00     0.076 H 
ATOM     67  H   SGN d 902     -28.939  86.712  16.931  0.00  0.00     0.231 HD
ATOM     68  H   SGN d 902     -32.176  80.850  15.704  0.00  0.00     0.080 H 
ATOM     69  H   SGN d 902     -33.467  80.770  16.869  0.00  0.00     0.080 H 
ATOM     70  H   SGN d 902     -33.503  84.053  20.533  0.00  0.00     0.210 HD
ATOM     71  H   SGN d 902     -31.800  88.530  19.040  0.00  0.00     0.231 HD
ATOM     72  H   SGN d 902     -31.478  83.495  19.632  0.00  0.00     0.089 H 
ATOM     73  H   SGN d 902     -29.596  88.268  19.978  0.00  0.00     0.231 HD
ATOM     74  O4S SGN d 904     -22.690  86.801  19.185  0.00  0.00    -0.572 OA
ATOM     75  O5S SGN d 904     -21.315  86.722  17.206  0.00  0.00    -0.572 OA
ATOM     76  C3  SGN d 904     -23.918  80.690  19.049  0.00  0.00     0.083 C 
ATOM     77  N   SGN d 904     -22.806  79.278  20.661  0.00  0.00    -0.210 NA
ATOM     78  O5  SGN d 904     -21.405  81.934  18.573  0.00  0.00    -0.350 OA
ATOM     79  O6S SGN d 904     -23.680  86.306  17.038  0.00  0.00    -0.572 OA
ATOM     80  O3S SGN d 904     -21.870  80.357  22.866  0.00  0.00    -0.296 OA
ATOM     81  O4  SGN d 904     -24.832  82.070  17.340  0.00  0.00    -0.348 OA
ATOM     82  S2  SGN d 904     -22.483  86.136  17.885  0.00  0.00     0.251 S 
ATOM     83  O1  SGN d 904     -21.339  79.594  18.308  0.00  0.00    -0.369 OA
ATOM     84  O3  SGN d 904     -25.118  80.631  19.787  0.00  0.00    -0.391 OA
ATOM     85  O2S SGN d 904     -22.474  78.019  22.963  0.00  0.00    -0.296 OA
ATOM     86  C5  SGN d 904     -22.459  82.124  17.623  0.00  0.00     0.091 C 
ATOM     87  O6  SGN d 904     -22.197  84.420  18.143  0.00  0.00    -0.254 OA
ATOM     88  O1S SGN d 904     -20.482  78.712  21.783  0.00  0.00    -0.296 OA
ATOM     89  C1  SGN d 904     -21.436  80.671  19.244  0.00  0.00     0.147 C 
ATOM     90  C4  SGN d 904     -23.810  82.027  18.332  0.00  0.00     0.095 C 
ATOM     91  C2  SGN d 904     -22.748  80.560  20.007  0.00  0.00     0.081 C 
ATOM     92  C6  SGN d 904     -22.293  83.515  17.045  0.00  0.00     0.067 C 
ATOM     93  S1  SGN d 904     -21.865  79.078  22.134  0.00  0.00     0.156 S 
ATOM     94  H   SGN d 904     -23.908  79.897  18.330  0.00  0.00     0.089 H 
ATOM     95  H   SGN d 904     -22.483  78.578  19.994  0.00  0.00     0.140 HD
ATOM     96  H   SGN d 904     -22.782  80.594  23.096  0.00  0.00     0.231 HD
ATOM     97  H   SGN d 904     -20.503  79.662  17.821  0.00  0.00     0.212 HD
ATOM     98  H   SGN d 904     -25.131  81.347  20.440  0.00  0.00     0.210 HD
ATOM     99  H   SGN d 904     -23.384  78.268  23.190  0.00  0.00     0.231 HD
ATOM    100  H   SGN d 904     -22.420  81.380  16.855  0.00  0.00     0.090 H 
ATOM    101  H   SGN d 904     -20.090  79.413  21.238  0.00  0.00     0.231 HD
ATOM    102  H   SGN d 904     -20.603  80.609  19.914  0.00  0.00     0.131 H 
ATOM    103  H   SGN d 904     -23.908  82.827  19.035  0.00  0.00     0.091 H 
ATOM    104  H   SGN d 904     -22.803  81.344  20.732  0.00  0.00     0.076 H 
ATOM    105  H   SGN d 904     -23.139  83.764  16.438  0.00  0.00     0.080 H 
ATOM    106  H   SGN d 904     -21.419  83.569  16.430  0.00  0.00     0.080 H 
ENDROOT
TORSDOF 33
ENDMDL
MODEL 47
REMARK VINA RESULT:      -6.8      5.359      8.601
REMARK  0 active torsions:
REMARK  status: ('A' for Active; 'I' for Inactive)
REMARK       I    between atoms: C3_1  and  O3_18 
REMARK       I    between atoms: O6_3  and  C6_41 
REMARK       I    between atoms: O6_3  and  S2_27 
REMARK       I    between atoms: C1_4  and  O1_67 
REMARK       I    between atoms: O2_6  and  C2_60 
REMARK       I    between atoms: O2_6  and  S_64 
REMARK       I    between atoms: C5_7  and  C6_41 
REMARK       I    between atoms: C6_9  and  C5_36 
REMARK       I    between atoms: N_10  and  C2_26 
REMARK       I    between atoms: N_10  and  S1_14 
REMARK       I    between atoms: O2_12  and  C2_39 
REMARK       I    between atoms: O2_12  and  S_34 
REMARK       I    between atoms: C3_13  and  O3_44 
REMARK       I    between atoms: S1_14  and  O1S_57 
REMARK       I    between atoms: S1_14  and  O2S_48 
REMARK       I    between atoms: S1_14  and  O3S_38 
REMARK       I    between atoms: C6_16  and  C5_68 
REMARK       I    between atoms: C4_17  and  O4_62 
REMARK       I    between atoms: N_21  and  C2_65 
REMARK       I    between atoms: N_21  and  S1_69 
REMARK       I    between atoms: C3_25  and  O3_30 
REMARK       I    between atoms: O3S_29  and  S1_69 
REMARK       I    between atoms: O4_31  and  C1_42 
REMARK       I    between atoms: O4_31  and  C4_63 
REMARK       I    between atoms: S2_35  and  O6_49 
REMARK       I    between atoms: O1_37  and  C1_61 
REMARK       I    between atoms: O2S_45  and  S1_69 
REMARK       I    between atoms: O3_46  and  C3_55 
REMARK       I    between atoms: C5_47  and  C6_66 
REMARK       I    between atoms: O6_49  and  C6_66 
REMARK       I    between atoms: O1S_52  and  S1_69 
REMARK       I    between atoms: C1_54  and  O4_62 
REMARK       I    between atoms: C4_59  and  O1_67 
ROOT
ATOM      1  C3  UAP d 901     -34.572  80.286  16.949  0.00  0.00     0.086 C 
ATOM      2  O1S UAP d 901     -36.655  76.500  18.678  0.00  0.00    -0.572 OA
ATOM      3  C6  UAP d 901     -32.250  80.049  14.124  0.00  0.00     0.233 C 
ATOM      4  O2  UAP d 901     -34.677  78.026  17.785  0.00  0.00    -0.244 OA
ATOM      5  O3  UAP d 901     -34.713  81.498  17.657  0.00  0.00    -0.389 OA
ATOM      6  O61 UAP d 901     -32.685  81.000  13.436  0.00  0.00    -0.642 OA
ATOM      7  O5  UAP d 901     -32.377  78.747  16.033  0.00  0.00    -0.311 OA
ATOM      8  O2S UAP d 901     -36.894  78.879  18.964  0.00  0.00    -0.572 OA
ATOM      9  S   UAP d 901     -35.942  77.753  18.987  0.00  0.00     0.252 S 
ATOM     10  C5  UAP d 901     -32.829  79.771  15.293  0.00  0.00     0.147 C 
ATOM     11  C2  UAP d 901     -33.911  79.227  17.832  0.00  0.00     0.135 C 
ATOM     12  O62 UAP d 901     -31.292  79.347  13.736  0.00  0.00    -0.642 OA
ATOM     13  O3S UAP d 901     -35.331  77.655  20.326  0.00  0.00    -0.572 OA
ATOM     14  C4  UAP d 901     -33.867  80.520  15.705  0.00  0.00    -0.034 C 
ATOM     15  C1  UAP d 901     -32.468  78.933  17.443  0.00  0.00     0.167 C 
ATOM     16  H   UAP d 901     -35.535  79.899  16.688  0.00  0.00     0.093 H 
ATOM     17  H   UAP d 901     -33.836  81.841  17.889  0.00  0.00     0.210 HD
ATOM     18  H   UAP d 901     -33.885  79.622  18.825  0.00  0.00     0.097 H 
ATOM     19  H   UAP d 901     -34.177  81.300  15.106  0.00  0.00     0.085 H 
ATOM     20  H   UAP d 901     -32.139  78.031  17.917  0.00  0.00     0.134 H 
ATOM     21  O1S IDS d 903     -21.780  80.904  23.912  0.00  0.00    -0.572 OA
ATOM     22  O2  IDS d 903     -23.854  81.473  22.370  0.00  0.00    -0.244 OA
ATOM     23  O5  IDS d 903     -26.725  83.464  21.562  0.00  0.00    -0.340 OA
ATOM     24  C6  IDS d 903     -28.999  83.025  21.075  0.00  0.00     0.206 C 
ATOM     25  O2S IDS d 903     -23.974  80.523  24.841  0.00  0.00    -0.572 OA
ATOM     26  C3  IDS d 903     -25.734  81.105  20.963  0.00  0.00     0.094 C 
ATOM     27  O3S IDS d 903     -23.115  79.055  23.131  0.00  0.00    -0.572 OA
ATOM     28  O3  IDS d 903     -25.383  79.742  20.861  0.00  0.00    -0.390 OA
ATOM     29  O61 IDS d 903     -30.049  82.367  21.196  0.00  0.00    -0.646 OA
ATOM     30  C1  IDS d 903     -25.556  83.151  22.336  0.00  0.00     0.161 C 
ATOM     31  C4  IDS d 903     -27.261  81.241  20.905  0.00  0.00     0.103 C 
ATOM     32  C2  IDS d 903     -25.265  81.644  22.294  0.00  0.00     0.134 C 
ATOM     33  S   IDS d 903     -23.152  80.449  23.620  0.00  0.00     0.252 S 
ATOM     34  C5  IDS d 903     -27.730  82.471  21.694  0.00  0.00     0.152 C 
ATOM     35  O62 IDS d 903     -28.946  84.124  20.477  0.00  0.00    -0.646 OA
ATOM     36  H   IDS d 903     -25.280  81.647  20.161  0.00  0.00     0.091 H 
ATOM     37  H   IDS d 903     -25.793  79.248  21.588  0.00  0.00     0.210 HD
ATOM     38  H   IDS d 903     -24.729  83.695  21.927  0.00  0.00     0.133 H 
ATOM     39  H   IDS d 903     -27.694  80.360  21.330  0.00  0.00     0.092 H 
ATOM     40  H   IDS d 903     -25.757  81.138  23.097  0.00  0.00     0.097 H 
ATOM     41  H   IDS d 903     -27.909  82.206  22.715  0.00  0.00     0.104 H 
ATOM     42  O6  SGN d 902     -29.939  77.007  18.991  0.00  0.00    -0.254 OA
ATOM     43  C1  SGN d 902     -27.541  80.250  18.718  0.00  0.00     0.150 C 
ATOM     44  C5  SGN d 902     -29.735  79.378  19.252  0.00  0.00     0.091 C 
ATOM     45  N   SGN d 902     -27.253  81.743  16.821  0.00  0.00    -0.210 NA
ATOM     46  S1  SGN d 902     -25.603  81.533  16.220  0.00  0.00     0.156 S 
ATOM     47  C4  SGN d 902     -30.234  79.700  17.842  0.00  0.00     0.095 C 
ATOM     48  O5S SGN d 902     -30.438  74.575  19.901  0.00  0.00    -0.572 OA
ATOM     49  C2  SGN d 902     -27.992  80.593  17.300  0.00  0.00     0.081 C 
ATOM     50  S2  SGN d 902     -30.905  75.534  18.880  0.00  0.00     0.251 S 
ATOM     51  O3S SGN d 902     -24.833  80.708  17.169  0.00  0.00    -0.296 OA
ATOM     52  C6  SGN d 902     -30.403  78.110  19.766  0.00  0.00     0.067 C 
ATOM     53  O3  SGN d 902     -29.912  81.204  15.994  0.00  0.00    -0.391 OA
ATOM     54  O2S SGN d 902     -25.643  80.861  14.908  0.00  0.00    -0.296 OA
ATOM     55  O6S SGN d 902     -32.324  75.861  19.115  0.00  0.00    -0.572 OA
ATOM     56  C3  SGN d 902     -29.482  80.910  17.304  0.00  0.00     0.083 C 
ATOM     57  O5  SGN d 902     -28.318  79.149  19.207  0.00  0.00    -0.349 OA
ATOM     58  O1S SGN d 902     -24.962  82.853  16.080  0.00  0.00    -0.296 OA
ATOM     59  O4S SGN d 902     -30.750  74.945  17.537  0.00  0.00    -0.572 OA
ATOM     60  O4  SGN d 902     -31.630  80.000  17.882  0.00  0.00    -0.348 OA
ATOM     61  O1  SGN d 902     -27.664  81.409  19.545  0.00  0.00    -0.348 OA
ATOM     62  H   SGN d 902     -26.513  79.953  18.728  0.00  0.00     0.131 H 
ATOM     63  H   SGN d 902     -29.968  80.199  19.897  0.00  0.00     0.090 H 
ATOM     64  H   SGN d 902     -27.205  82.407  17.595  0.00  0.00     0.140 HD
ATOM     65  H   SGN d 902     -30.067  78.855  17.207  0.00  0.00     0.091 H 
ATOM     66  H   SGN d 902     -27.806  79.759  16.656  0.00  0.00     0.076 H 
ATOM     67  H   SGN d 902     -24.805  81.149  18.033  0.00  0.00     0.231 HD
ATOM     68  H   SGN d 902     -30.148  77.960  20.795  0.00  0.00     0.080 H 
ATOM     69  H   SGN d 902     -31.466  78.196  19.683  0.00  0.00     0.080 H 
ATOM     70  H   SGN d 902     -30.861  81.405  16.004  0.00  0.00     0.210 HD
ATOM     71  H   SGN d 902     -26.149  81.402  14.282  0.00  0.00     0.231 HD
ATOM     72  H   SGN d 902     -29.673  81.760  17.923  0.00  0.00     0.089 H 
ATOM     73  H   SGN d 902     -25.470  83.395  15.454  0.00  0.00     0.231 HD
ATOM     74  O4S SGN d 904     -22.128  86.516  20.891  0.00  0.00    -0.572 OA
ATOM     75  O5S SGN d 904     -20.510  85.646  22.452  0.00  0.00    -0.572 OA
ATOM     76  C3  SGN d 904     -26.964  85.339  24.648  0.00  0.00     0.083 C 
ATOM     77  N   SGN d 904     -28.002  87.206  25.771  0.00  0.00    -0.210 NA
ATOM     78  O5  SGN d 904     -24.446  86.429  25.400  0.00  0.00    -0.350 OA
ATOM     79  O6S SGN d 904     -22.089  84.157  21.411  0.00  0.00    -0.572 OA
ATOM     80  O3S SGN d 904     -27.699  89.619  24.776  0.00  0.00    -0.296 OA
ATOM     81  O4  SGN d 904     -25.790  83.500  23.697  0.00  0.00    -0.348 OA
ATOM     82  S2  SGN d 904     -21.887  85.516  21.949  0.00  0.00     0.251 S 
ATOM     83  O1  SGN d 904     -25.894  86.102  27.231  0.00  0.00    -0.369 OA
ATOM     84  O3  SGN d 904     -28.025  85.273  23.722  0.00  0.00    -0.391 OA
ATOM     85  O2S SGN d 904     -29.692  89.217  26.082  0.00  0.00    -0.296 OA
ATOM     86  C5  SGN d 904     -24.506  85.066  24.967  0.00  0.00     0.091 C 
ATOM     87  O6  SGN d 904     -23.012  85.784  23.275  0.00  0.00    -0.254 OA
ATOM     88  O1S SGN d 904     -27.542  89.399  27.171  0.00  0.00    -0.296 OA
ATOM     89  C1  SGN d 904     -25.627  86.888  26.066  0.00  0.00     0.147 C 
ATOM     90  C4  SGN d 904     -25.668  84.889  23.990  0.00  0.00     0.095 C 
ATOM     91  C2  SGN d 904     -26.800  86.777  25.102  0.00  0.00     0.081 C 
ATOM     92  C6  SGN d 904     -23.200  84.767  24.257  0.00  0.00     0.067 C 
ATOM     93  S1  SGN d 904     -28.247  88.938  25.963  0.00  0.00     0.156 S 
ATOM     94  H   SGN d 904     -27.182  84.702  25.479  0.00  0.00     0.089 H 
ATOM     95  H   SGN d 904     -27.998  86.793  26.704  0.00  0.00     0.140 HD
ATOM     96  H   SGN d 904     -28.166  89.313  23.983  0.00  0.00     0.231 HD
ATOM     97  H   SGN d 904     -25.148  86.173  27.846  0.00  0.00     0.212 HD
ATOM     98  H   SGN d 904     -27.832  85.849  22.967  0.00  0.00     0.210 HD
ATOM     99  H   SGN d 904     -30.148  88.910  25.282  0.00  0.00     0.231 HD
ATOM    100  H   SGN d 904     -24.652  84.408  25.797  0.00  0.00     0.090 H 
ATOM    101  H   SGN d 904     -26.594  89.212  27.084  0.00  0.00     0.231 HD
ATOM    102  H   SGN d 904     -25.485  87.904  26.371  0.00  0.00     0.131 H 
ATOM    103  H   SGN d 904     -25.488  85.465  23.106  0.00  0.00     0.091 H 
ATOM    104  H   SGN d 904     -26.616  87.394  24.248  0.00  0.00     0.076 H 
ATOM    105  H   SGN d 904     -23.251  83.807  23.785  0.00  0.00     0.080 H 
ATOM    106  H   SGN d 904     -22.386  84.752  24.950  0.00  0.00     0.080 H 
ENDROOT
TORSDOF 33
ENDMDL
MODEL 48
REMARK VINA RESULT:      -6.8      5.136     11.714
REMARK  0 active torsions:
REMARK  status: ('A' for Active; 'I' for Inactive)
REMARK       I    between atoms: C3_1  and  O3_18 
REMARK       I    between atoms: O6_3  and  C6_41 
REMARK       I    between atoms: O6_3  and  S2_27 
REMARK       I    between atoms: C1_4  and  O1_67 
REMARK       I    between atoms: O2_6  and  C2_60 
REMARK       I    between atoms: O2_6  and  S_64 
REMARK       I    between atoms: C5_7  and  C6_41 
REMARK       I    between atoms: C6_9  and  C5_36 
REMARK       I    between atoms: N_10  and  C2_26 
REMARK       I    between atoms: N_10  and  S1_14 
REMARK       I    between atoms: O2_12  and  C2_39 
REMARK       I    between atoms: O2_12  and  S_34 
REMARK       I    between atoms: C3_13  and  O3_44 
REMARK       I    between atoms: S1_14  and  O1S_57 
REMARK       I    between atoms: S1_14  and  O2S_48 
REMARK       I    between atoms: S1_14  and  O3S_38 
REMARK       I    between atoms: C6_16  and  C5_68 
REMARK       I    between atoms: C4_17  and  O4_62 
REMARK       I    between atoms: N_21  and  C2_65 
REMARK       I    between atoms: N_21  and  S1_69 
REMARK       I    between atoms: C3_25  and  O3_30 
REMARK       I    between atoms: O3S_29  and  S1_69 
REMARK       I    between atoms: O4_31  and  C1_42 
REMARK       I    between atoms: O4_31  and  C4_63 
REMARK       I    between atoms: S2_35  and  O6_49 
REMARK       I    between atoms: O1_37  and  C1_61 
REMARK       I    between atoms: O2S_45  and  S1_69 
REMARK       I    between atoms: O3_46  and  C3_55 
REMARK       I    between atoms: C5_47  and  C6_66 
REMARK       I    between atoms: O6_49  and  C6_66 
REMARK       I    between atoms: O1S_52  and  S1_69 
REMARK       I    between atoms: C1_54  and  O4_62 
REMARK       I    between atoms: C4_59  and  O1_67 
ROOT
ATOM      1  C3  UAP d 901     -34.395  78.418  16.827  0.00  0.00     0.086 C 
ATOM      2  O1S UAP d 901     -35.058  81.233  13.181  0.00  0.00    -0.572 OA
ATOM      3  C6  UAP d 901     -35.864  79.174  20.098  0.00  0.00     0.233 C 
ATOM      4  O2  UAP d 901     -34.470  80.534  15.672  0.00  0.00    -0.244 OA
ATOM      5  O3  UAP d 901     -33.462  77.367  16.689  0.00  0.00    -0.389 OA
ATOM      6  O61 UAP d 901     -36.321  78.041  20.371  0.00  0.00    -0.642 OA
ATOM      7  O5  UAP d 901     -34.732  80.569  18.639  0.00  0.00    -0.311 OA
ATOM      8  O2S UAP d 901     -34.144  79.029  13.511  0.00  0.00    -0.572 OA
ATOM      9  S   UAP d 901     -34.084  80.436  13.950  0.00  0.00     0.252 S 
ATOM     10  C5  UAP d 901     -35.215  79.356  18.947  0.00  0.00     0.147 C 
ATOM     11  C2  UAP d 901     -33.713  79.768  16.605  0.00  0.00     0.135 C 
ATOM     12  O62 UAP d 901     -36.011  80.142  20.875  0.00  0.00    -0.642 OA
ATOM     13  O3S UAP d 901     -32.726  80.964  13.723  0.00  0.00    -0.572 OA
ATOM     14  C4  UAP d 901     -35.067  78.316  18.106  0.00  0.00    -0.034 C 
ATOM     15  C1  UAP d 901     -33.520  80.565  17.889  0.00  0.00     0.167 C 
ATOM     16  H   UAP d 901     -35.152  78.337  16.075  0.00  0.00     0.093 H 
ATOM     17  H   UAP d 901     -32.781  77.448  17.375  0.00  0.00     0.210 HD
ATOM     18  H   UAP d 901     -32.735  79.564  16.223  0.00  0.00     0.097 H 
ATOM     19  H   UAP d 901     -35.451  77.400  18.387  0.00  0.00     0.085 H 
ATOM     20  H   UAP d 901     -33.274  81.580  17.654  0.00  0.00     0.134 H 
ATOM     21  O1S IDS d 903     -22.860  84.056  23.729  0.00  0.00    -0.572 OA
ATOM     22  O2  IDS d 903     -24.860  82.479  23.013  0.00  0.00    -0.244 OA
ATOM     23  O5  IDS d 903     -26.119  79.400  21.675  0.00  0.00    -0.340 OA
ATOM     24  C6  IDS d 903     -27.643  78.801  19.966  0.00  0.00     0.206 C 
ATOM     25  O2S IDS d 903     -23.135  83.640  21.369  0.00  0.00    -0.572 OA
ATOM     26  C3  IDS d 903     -26.969  81.846  22.119  0.00  0.00     0.094 C 
ATOM     27  O3S IDS d 903     -24.690  85.070  22.533  0.00  0.00    -0.572 OA
ATOM     28  O3  IDS d 903     -27.349  83.204  22.070  0.00  0.00    -0.390 OA
ATOM     29  O61 IDS d 903     -28.204  78.985  18.870  0.00  0.00    -0.646 OA
ATOM     30  C1  IDS d 903     -25.069  80.268  22.131  0.00  0.00     0.161 C 
ATOM     31  C4  IDS d 903     -27.626  81.094  20.954  0.00  0.00     0.103 C 
ATOM     32  C2  IDS d 903     -25.470  81.740  21.962  0.00  0.00     0.134 C 
ATOM     33  S   IDS d 903     -23.839  83.867  22.644  0.00  0.00     0.252 S 
ATOM     34  C5  IDS d 903     -26.760  79.905  20.515  0.00  0.00     0.152 C 
ATOM     35  O62 IDS d 903     -27.767  77.747  20.630  0.00  0.00    -0.646 OA
ATOM     36  H   IDS d 903     -27.276  81.427  23.054  0.00  0.00     0.091 H 
ATOM     37  H   IDS d 903     -27.072  83.587  21.224  0.00  0.00     0.210 HD
ATOM     38  H   IDS d 903     -24.883  80.055  23.163  0.00  0.00     0.133 H 
ATOM     39  H   IDS d 903     -27.739  81.773  20.135  0.00  0.00     0.092 H 
ATOM     40  H   IDS d 903     -25.168  82.111  21.005  0.00  0.00     0.097 H 
ATOM     41  H   IDS d 903     -26.061  80.217  19.766  0.00  0.00     0.104 H 
ATOM     42  O6  SGN d 902     -31.762  83.553  18.587  0.00  0.00    -0.254 OA
ATOM     43  C1  SGN d 902     -29.913  81.563  21.580  0.00  0.00     0.150 C 
ATOM     44  C5  SGN d 902     -30.683  81.533  19.286  0.00  0.00     0.091 C 
ATOM     45  N   SGN d 902     -30.904  80.062  23.216  0.00  0.00    -0.210 NA
ATOM     46  S1  SGN d 902     -30.775  80.837  24.801  0.00  0.00     0.156 S 
ATOM     47  C4  SGN d 902     -31.980  80.838  19.703  0.00  0.00     0.095 C 
ATOM     48  O5S SGN d 902     -32.000  85.673  17.025  0.00  0.00    -0.572 OA
ATOM     49  C2  SGN d 902     -31.190  80.868  22.047  0.00  0.00     0.081 C 
ATOM     50  S2  SGN d 902     -32.747  84.472  17.448  0.00  0.00     0.251 S 
ATOM     51  O3S SGN d 902     -29.915  82.030  24.698  0.00  0.00    -0.296 OA
ATOM     52  C6  SGN d 902     -30.947  82.479  18.122  0.00  0.00     0.067 C 
ATOM     53  O3  SGN d 902     -32.912  79.349  21.344  0.00  0.00    -0.391 OA
ATOM     54  O2S SGN d 902     -32.118  81.241  25.258  0.00  0.00    -0.296 OA
ATOM     55  O6S SGN d 902     -33.048  83.633  16.272  0.00  0.00    -0.572 OA
ATOM     56  C3  SGN d 902     -31.720  79.976  20.931  0.00  0.00     0.083 C 
ATOM     57  O5  SGN d 902     -30.191  82.310  20.388  0.00  0.00    -0.349 OA
ATOM     58  O1S SGN d 902     -30.190  79.887  25.764  0.00  0.00    -0.296 OA
ATOM     59  O4S SGN d 902     -34.007  84.876  18.101  0.00  0.00    -0.572 OA
ATOM     60  O4  SGN d 902     -32.445  80.005  18.640  0.00  0.00    -0.348 OA
ATOM     61  O1  SGN d 902     -28.890  80.585  21.380  0.00  0.00    -0.348 OA
ATOM     62  H   SGN d 902     -29.563  82.250  22.321  0.00  0.00     0.131 H 
ATOM     63  H   SGN d 902     -29.971  80.789  18.995  0.00  0.00     0.090 H 
ATOM     64  H   SGN d 902     -30.015  79.593  23.042  0.00  0.00     0.140 HD
ATOM     65  H   SGN d 902     -32.720  81.578  19.928  0.00  0.00     0.091 H 
ATOM     66  H   SGN d 902     -31.926  81.604  22.295  0.00  0.00     0.076 H 
ATOM     67  H   SGN d 902     -29.031  81.767  24.398  0.00  0.00     0.231 HD
ATOM     68  H   SGN d 902     -30.018  82.864  17.753  0.00  0.00     0.080 H 
ATOM     69  H   SGN d 902     -31.443  81.957  17.331  0.00  0.00     0.080 H 
ATOM     70  H   SGN d 902     -33.244  78.783  20.630  0.00  0.00     0.210 HD
ATOM     71  H   SGN d 902     -32.686  80.458  25.326  0.00  0.00     0.231 HD
ATOM     72  H   SGN d 902     -31.002  79.219  20.696  0.00  0.00     0.089 H 
ATOM     73  H   SGN d 902     -30.758  79.103  25.831  0.00  0.00     0.231 HD
ATOM     74  O4S SGN d 904     -23.729  78.420  26.597  0.00  0.00    -0.572 OA
ATOM     75  O5S SGN d 904     -22.005  80.086  26.850  0.00  0.00    -0.572 OA
ATOM     76  C3  SGN d 904     -23.007  78.050  20.415  0.00  0.00     0.083 C 
ATOM     77  N   SGN d 904     -21.894  76.103  19.522  0.00  0.00    -0.210 NA
ATOM     78  O5  SGN d 904     -20.942  78.198  22.366  0.00  0.00    -0.350 OA
ATOM     79  O6S SGN d 904     -24.042  80.639  25.694  0.00  0.00    -0.572 OA
ATOM     80  O3S SGN d 904     -21.818  73.908  20.963  0.00  0.00    -0.296 OA
ATOM     81  O4  SGN d 904     -23.906  80.052  21.335  0.00  0.00    -0.348 OA
ATOM     82  S2  SGN d 904     -23.059  79.571  25.961  0.00  0.00     0.251 S 
ATOM     83  O1  SGN d 904     -20.122  78.164  20.157  0.00  0.00    -0.369 OA
ATOM     84  O3  SGN d 904     -24.262  77.546  20.018  0.00  0.00    -0.391 OA
ATOM     85  O2S SGN d 904     -21.699  73.646  18.564  0.00  0.00    -0.296 OA
ATOM     86  C5  SGN d 904     -21.777  79.342  22.157  0.00  0.00     0.091 C 
ATOM     87  O6  SGN d 904     -22.333  79.061  24.443  0.00  0.00    -0.254 OA
ATOM     88  O1S SGN d 904     -19.802  74.511  19.788  0.00  0.00    -0.296 OA
ATOM     89  C1  SGN d 904     -20.735  77.398  21.198  0.00  0.00     0.147 C 
ATOM     90  C4  SGN d 904     -23.155  78.889  21.675  0.00  0.00     0.095 C 
ATOM     91  C2  SGN d 904     -22.085  76.884  20.718  0.00  0.00     0.081 C 
ATOM     92  C6  SGN d 904     -21.917  80.042  23.495  0.00  0.00     0.067 C 
ATOM     93  S1  SGN d 904     -21.273  74.468  19.714  0.00  0.00     0.156 S 
ATOM     94  H   SGN d 904     -22.606  78.655  19.628  0.00  0.00     0.089 H 
ATOM     95  H   SGN d 904     -21.240  76.611  18.925  0.00  0.00     0.140 HD
ATOM     96  H   SGN d 904     -22.786  73.881  20.910  0.00  0.00     0.231 HD
ATOM     97  H   SGN d 904     -19.262  78.492  20.461  0.00  0.00     0.212 HD
ATOM     98  H   SGN d 904     -24.629  76.997  20.728  0.00  0.00     0.210 HD
ATOM     99  H   SGN d 904     -22.668  73.623  18.523  0.00  0.00     0.231 HD
ATOM    100  H   SGN d 904     -21.353  79.995  21.423  0.00  0.00     0.090 H 
ATOM    101  H   SGN d 904     -19.532  75.053  20.546  0.00  0.00     0.231 HD
ATOM    102  H   SGN d 904     -20.086  76.583  21.441  0.00  0.00     0.131 H 
ATOM    103  H   SGN d 904     -23.636  78.317  22.440  0.00  0.00     0.091 H 
ATOM    104  H   SGN d 904     -22.526  76.280  21.483  0.00  0.00     0.076 H 
ATOM    105  H   SGN d 904     -22.648  80.820  23.427  0.00  0.00     0.080 H 
ATOM    106  H   SGN d 904     -20.989  80.485  23.790  0.00  0.00     0.080 H 
ENDROOT
TORSDOF 33
ENDMDL
MODEL 49
REMARK VINA RESULT:      -6.7      5.177     12.598
REMARK  0 active torsions:
REMARK  status: ('A' for Active; 'I' for Inactive)
REMARK       I    between atoms: C3_1  and  O3_18 
REMARK       I    between atoms: O6_3  and  C6_41 
REMARK       I    between atoms: O6_3  and  S2_27 
REMARK       I    between atoms: C1_4  and  O1_67 
REMARK       I    between atoms: O2_6  and  C2_60 
REMARK       I    between atoms: O2_6  and  S_64 
REMARK       I    between atoms: C5_7  and  C6_41 
REMARK       I    between atoms: C6_9  and  C5_36 
REMARK       I    between atoms: N_10  and  C2_26 
REMARK       I    between atoms: N_10  and  S1_14 
REMARK       I    between atoms: O2_12  and  C2_39 
REMARK       I    between atoms: O2_12  and  S_34 
REMARK       I    between atoms: C3_13  and  O3_44 
REMARK       I    between atoms: S1_14  and  O1S_57 
REMARK       I    between atoms: S1_14  and  O2S_48 
REMARK       I    between atoms: S1_14  and  O3S_38 
REMARK       I    between atoms: C6_16  and  C5_68 
REMARK       I    between atoms: C4_17  and  O4_62 
REMARK       I    between atoms: N_21  and  C2_65 
REMARK       I    between atoms: N_21  and  S1_69 
REMARK       I    between atoms: C3_25  and  O3_30 
REMARK       I    between atoms: O3S_29  and  S1_69 
REMARK       I    between atoms: O4_31  and  C1_42 
REMARK       I    between atoms: O4_31  and  C4_63 
REMARK       I    between atoms: S2_35  and  O6_49 
REMARK       I    between atoms: O1_37  and  C1_61 
REMARK       I    between atoms: O2S_45  and  S1_69 
REMARK       I    between atoms: O3_46  and  C3_55 
REMARK       I    between atoms: C5_47  and  C6_66 
REMARK       I    between atoms: O6_49  and  C6_66 
REMARK       I    between atoms: O1S_52  and  S1_69 
REMARK       I    between atoms: C1_54  and  O4_62 
REMARK       I    between atoms: C4_59  and  O1_67 
ROOT
ATOM      1  C3  UAP d 901     -26.822  85.723  14.749  0.00  0.00     0.086 C 
ATOM      2  O1S UAP d 901     -22.750  85.410  12.518  0.00  0.00    -0.572 OA
ATOM      3  C6  UAP d 901     -27.220  87.894  17.674  0.00  0.00     0.233 C 
ATOM      4  O2  UAP d 901     -24.432  85.451  14.569  0.00  0.00    -0.244 OA
ATOM      5  O3  UAP d 901     -27.845  84.821  14.385  0.00  0.00    -0.389 OA
ATOM      6  O61 UAP d 901     -28.302  88.441  17.363  0.00  0.00    -0.642 OA
ATOM      7  O5  UAP d 901     -25.523  86.403  17.173  0.00  0.00    -0.311 OA
ATOM      8  O2S UAP d 901     -25.004  84.677  12.097  0.00  0.00    -0.572 OA
ATOM      9  S   UAP d 901     -23.900  84.674  13.074  0.00  0.00     0.252 S 
ATOM     10  C5  UAP d 901     -26.688  86.986  16.854  0.00  0.00     0.147 C 
ATOM     11  C2  UAP d 901     -25.590  84.961  15.240  0.00  0.00     0.135 C 
ATOM     12  O62 UAP d 901     -26.621  88.186  18.731  0.00  0.00    -0.642 OA
ATOM     13  O3S UAP d 901     -23.502  83.283  13.361  0.00  0.00    -0.572 OA
ATOM     14  C4  UAP d 901     -27.328  86.680  15.711  0.00  0.00    -0.034 C 
ATOM     15  C1  UAP d 901     -25.387  85.049  16.747  0.00  0.00     0.167 C 
ATOM     16  H   UAP d 901     -26.506  86.284  13.894  0.00  0.00     0.093 H 
ATOM     17  H   UAP d 901     -28.125  84.318  15.166  0.00  0.00     0.210 HD
ATOM     18  H   UAP d 901     -25.752  83.929  15.014  0.00  0.00     0.097 H 
ATOM     19  H   UAP d 901     -28.224  87.151  15.510  0.00  0.00     0.085 H 
ATOM     20  H   UAP d 901     -24.402  84.720  17.002  0.00  0.00     0.134 H 
ATOM     21  O1S IDS d 903     -25.831  75.950  25.520  0.00  0.00    -0.572 OA
ATOM     22  O2  IDS d 903     -26.737  77.778  23.835  0.00  0.00    -0.244 OA
ATOM     23  O5  IDS d 903     -28.865  78.793  21.134  0.00  0.00    -0.340 OA
ATOM     24  C6  IDS d 903     -28.552  79.891  19.060  0.00  0.00     0.206 C 
ATOM     25  O2S IDS d 903     -25.256  75.676  23.192  0.00  0.00    -0.572 OA
ATOM     26  C3  IDS d 903     -26.699  79.638  22.356  0.00  0.00     0.094 C 
ATOM     27  O3S IDS d 903     -24.208  77.411  24.500  0.00  0.00    -0.572 OA
ATOM     28  O3  IDS d 903     -25.393  79.949  22.790  0.00  0.00    -0.390 OA
ATOM     29  O61 IDS d 903     -27.886  80.171  18.047  0.00  0.00    -0.646 OA
ATOM     30  C1  IDS d 903     -28.384  77.850  22.105  0.00  0.00     0.161 C 
ATOM     31  C4  IDS d 903     -26.848  80.028  20.879  0.00  0.00     0.103 C 
ATOM     32  C2  IDS d 903     -26.924  78.149  22.474  0.00  0.00     0.134 C 
ATOM     33  S   IDS d 903     -25.457  76.652  24.279  0.00  0.00     0.252 S 
ATOM     34  C5  IDS d 903     -27.870  79.125  20.177  0.00  0.00     0.152 C 
ATOM     35  O62 IDS d 903     -29.757  80.205  19.196  0.00  0.00    -0.646 OA
ATOM     36  H   IDS d 903     -27.406  80.171  22.956  0.00  0.00     0.091 H 
ATOM     37  H   IDS d 903     -24.749  79.467  22.248  0.00  0.00     0.210 HD
ATOM     38  H   IDS d 903     -29.003  77.921  22.974  0.00  0.00     0.133 H 
ATOM     39  H   IDS d 903     -25.895  79.921  20.405  0.00  0.00     0.092 H 
ATOM     40  H   IDS d 903     -26.252  77.618  21.835  0.00  0.00     0.097 H 
ATOM     41  H   IDS d 903     -27.383  78.259  19.779  0.00  0.00     0.104 H 
ATOM     42  O6  SGN d 902     -23.157  83.403  18.942  0.00  0.00    -0.254 OA
ATOM     43  C1  SGN d 902     -26.374  82.381  21.168  0.00  0.00     0.150 C 
ATOM     44  C5  SGN d 902     -25.409  82.589  18.957  0.00  0.00     0.091 C 
ATOM     45  N   SGN d 902     -28.254  83.780  21.812  0.00  0.00    -0.210 NA
ATOM     46  S1  SGN d 902     -28.180  84.002  23.566  0.00  0.00     0.156 S 
ATOM     47  C4  SGN d 902     -26.041  83.972  18.784  0.00  0.00     0.095 C 
ATOM     48  O5S SGN d 902     -20.585  83.192  18.370  0.00  0.00    -0.572 OA
ATOM     49  C2  SGN d 902     -27.027  83.755  21.042  0.00  0.00     0.081 C 
ATOM     50  S2  SGN d 902     -21.750  84.059  18.105  0.00  0.00     0.251 S 
ATOM     51  O3S SGN d 902     -27.161  83.101  24.135  0.00  0.00    -0.296 OA
ATOM     52  C6  SGN d 902     -24.059  82.538  18.254  0.00  0.00     0.067 C 
ATOM     53  O3  SGN d 902     -27.920  85.314  19.450  0.00  0.00    -0.391 OA
ATOM     54  O2S SGN d 902     -27.819  85.399  23.867  0.00  0.00    -0.296 OA
ATOM     55  O6S SGN d 902     -22.019  84.104  16.655  0.00  0.00    -0.572 OA
ATOM     56  C3  SGN d 902     -27.338  84.037  19.578  0.00  0.00     0.083 C 
ATOM     57  O5  SGN d 902     -25.192  82.344  20.356  0.00  0.00    -0.349 OA
ATOM     58  O1S SGN d 902     -29.497  83.693  24.153  0.00  0.00    -0.296 OA
ATOM     59  O4S SGN d 902     -21.476  85.423  18.598  0.00  0.00    -0.572 OA
ATOM     60  O4  SGN d 902     -26.328  84.201  17.404  0.00  0.00    -0.348 OA
ATOM     61  O1  SGN d 902     -27.317  81.374  20.796  0.00  0.00    -0.348 OA
ATOM     62  H   SGN d 902     -26.079  82.191  22.179  0.00  0.00     0.131 H 
ATOM     63  H   SGN d 902     -26.065  81.855  18.538  0.00  0.00     0.090 H 
ATOM     64  H   SGN d 902     -28.727  82.892  21.645  0.00  0.00     0.140 HD
ATOM     65  H   SGN d 902     -25.360  84.717  19.138  0.00  0.00     0.091 H 
ATOM     66  H   SGN d 902     -26.358  84.503  21.415  0.00  0.00     0.076 H 
ATOM     67  H   SGN d 902     -27.397  82.180  23.938  0.00  0.00     0.231 HD
ATOM     68  H   SGN d 902     -23.682  81.537  18.270  0.00  0.00     0.080 H 
ATOM     69  H   SGN d 902     -24.165  82.852  17.237  0.00  0.00     0.080 H 
ATOM     70  H   SGN d 902     -28.116  85.488  18.516  0.00  0.00     0.210 HD
ATOM     71  H   SGN d 902     -28.488  85.994  23.493  0.00  0.00     0.231 HD
ATOM     72  H   SGN d 902     -28.029  83.311  19.204  0.00  0.00     0.089 H 
ATOM     73  H   SGN d 902     -30.166  84.288  23.778  0.00  0.00     0.231 HD
ATOM     74  O4S SGN d 904     -31.979  77.664  25.597  0.00  0.00    -0.572 OA
ATOM     75  O5S SGN d 904     -30.777  75.992  26.849  0.00  0.00    -0.572 OA
ATOM     76  C3  SGN d 904     -30.001  75.520  20.087  0.00  0.00     0.083 C 
ATOM     77  N   SGN d 904     -31.570  74.296  18.721  0.00  0.00    -0.210 NA
ATOM     78  O5  SGN d 904     -30.888  73.969  22.300  0.00  0.00    -0.350 OA
ATOM     79  O6S SGN d 904     -29.564  77.679  25.636  0.00  0.00    -0.572 OA
ATOM     80  O3S SGN d 904     -34.144  74.638  19.124  0.00  0.00    -0.296 OA
ATOM     81  O4  SGN d 904     -28.419  76.541  21.543  0.00  0.00    -0.348 OA
ATOM     82  S2  SGN d 904     -30.767  76.824  25.636  0.00  0.00     0.251 S 
ATOM     83  O1  SGN d 904     -30.162  72.654  20.485  0.00  0.00    -0.369 OA
ATOM     84  O3  SGN d 904     -30.146  76.663  19.275  0.00  0.00    -0.391 OA
ATOM     85  O2S SGN d 904     -33.463  73.965  16.904  0.00  0.00    -0.296 OA
ATOM     86  C5  SGN d 904     -29.657  74.691  22.413  0.00  0.00     0.091 C 
ATOM     87  O6  SGN d 904     -30.733  75.779  24.222  0.00  0.00    -0.254 OA
ATOM     88  O1S SGN d 904     -33.392  72.382  18.730  0.00  0.00    -0.296 OA
ATOM     89  C1  SGN d 904     -31.189  73.520  20.975  0.00  0.00     0.147 C 
ATOM     90  C4  SGN d 904     -29.707  75.932  21.521  0.00  0.00     0.095 C 
ATOM     91  C2  SGN d 904     -31.299  74.736  20.066  0.00  0.00     0.081 C 
ATOM     92  C6  SGN d 904     -29.522  75.118  23.862  0.00  0.00     0.067 C 
ATOM     93  S1  SGN d 904     -33.215  73.795  18.349  0.00  0.00     0.156 S 
ATOM     94  H   SGN d 904     -29.193  74.924  19.714  0.00  0.00     0.089 H 
ATOM     95  H   SGN d 904     -30.958  73.503  18.529  0.00  0.00     0.140 HD
ATOM     96  H   SGN d 904     -34.025  75.566  18.871  0.00  0.00     0.231 HD
ATOM     97  H   SGN d 904     -30.090  71.878  21.063  0.00  0.00     0.212 HD
ATOM     98  H   SGN d 904     -30.877  77.206  19.609  0.00  0.00     0.210 HD
ATOM     99  H   SGN d 904     -33.345  74.898  16.664  0.00  0.00     0.231 HD
ATOM    100  H   SGN d 904     -28.829  74.084  22.112  0.00  0.00     0.090 H 
ATOM    101  H   SGN d 904     -33.227  72.279  19.680  0.00  0.00     0.231 HD
ATOM    102  H   SGN d 904     -32.109  72.975  20.990  0.00  0.00     0.131 H 
ATOM    103  H   SGN d 904     -30.465  76.599  21.873  0.00  0.00     0.091 H 
ATOM    104  H   SGN d 904     -32.092  75.366  20.412  0.00  0.00     0.076 H 
ATOM    105  H   SGN d 904     -28.692  75.785  23.972  0.00  0.00     0.080 H 
ATOM    106  H   SGN d 904     -29.349  74.271  24.493  0.00  0.00     0.080 H 
ENDROOT
TORSDOF 33
ENDMDL
MODEL 50
REMARK VINA RESULT:      -6.7      4.839      8.606
REMARK  0 active torsions:
REMARK  status: ('A' for Active; 'I' for Inactive)
REMARK       I    between atoms: C3_1  and  O3_18 
REMARK       I    between atoms: O6_3  and  C6_41 
REMARK       I    between atoms: O6_3  and  S2_27 
REMARK       I    between atoms: C1_4  and  O1_67 
REMARK       I    between atoms: O2_6  and  C2_60 
REMARK       I    between atoms: O2_6  and  S_64 
REMARK       I    between atoms: C5_7  and  C6_41 
REMARK       I    between atoms: C6_9  and  C5_36 
REMARK       I    between atoms: N_10  and  C2_26 
REMARK       I    between atoms: N_10  and  S1_14 
REMARK       I    between atoms: O2_12  and  C2_39 
REMARK       I    between atoms: O2_12  and  S_34 
REMARK       I    between atoms: C3_13  and  O3_44 
REMARK       I    between atoms: S1_14  and  O1S_57 
REMARK       I    between atoms: S1_14  and  O2S_48 
REMARK       I    between atoms: S1_14  and  O3S_38 
REMARK       I    between atoms: C6_16  and  C5_68 
REMARK       I    between atoms: C4_17  and  O4_62 
REMARK       I    between atoms: N_21  and  C2_65 
REMARK       I    between atoms: N_21  and  S1_69 
REMARK       I    between atoms: C3_25  and  O3_30 
REMARK       I    between atoms: O3S_29  and  S1_69 
REMARK       I    between atoms: O4_31  and  C1_42 
REMARK       I    between atoms: O4_31  and  C4_63 
REMARK       I    between atoms: S2_35  and  O6_49 
REMARK       I    between atoms: O1_37  and  C1_61 
REMARK       I    between atoms: O2S_45  and  S1_69 
REMARK       I    between atoms: O3_46  and  C3_55 
REMARK       I    between atoms: C5_47  and  C6_66 
REMARK       I    between atoms: O6_49  and  C6_66 
REMARK       I    between atoms: O1S_52  and  S1_69 
REMARK       I    between atoms: C1_54  and  O4_62 
REMARK       I    between atoms: C4_59  and  O1_67 
ROOT
ATOM      1  C3  UAP d 901     -37.251  80.548  18.724  0.00  0.00     0.086 C 
ATOM      2  O1S UAP d 901     -39.437  76.875  20.565  0.00  0.00    -0.572 OA
ATOM      3  C6  UAP d 901     -35.909  80.444  15.316  0.00  0.00     0.233 C 
ATOM      4  O2  UAP d 901     -37.540  78.221  19.289  0.00  0.00    -0.244 OA
ATOM      5  O3  UAP d 901     -36.955  81.635  19.575  0.00  0.00    -0.389 OA
ATOM      6  O61 UAP d 901     -36.333  81.549  14.908  0.00  0.00    -0.642 OA
ATOM      7  O5  UAP d 901     -35.736  78.878  17.011  0.00  0.00    -0.311 OA
ATOM      8  O2S UAP d 901     -39.132  79.183  21.180  0.00  0.00    -0.572 OA
ATOM      9  S   UAP d 901     -38.443  77.942  20.782  0.00  0.00     0.252 S 
ATOM     10  C5  UAP d 901     -36.176  80.065  16.567  0.00  0.00     0.147 C 
ATOM     11  C2  UAP d 901     -36.580  79.273  19.235  0.00  0.00     0.135 C 
ATOM     12  O62 UAP d 901     -35.250  79.683  14.576  0.00  0.00    -0.642 OA
ATOM     13  O3S UAP d 901     -37.508  77.536  21.849  0.00  0.00    -0.572 OA
ATOM     14  C4  UAP d 901     -36.895  80.879  17.360  0.00  0.00    -0.034 C 
ATOM     15  C1  UAP d 901     -35.388  78.839  18.393  0.00  0.00     0.167 C 
ATOM     16  H   UAP d 901     -38.304  80.355  18.729  0.00  0.00     0.093 H 
ATOM     17  H   UAP d 901     -36.000  81.802  19.564  0.00  0.00     0.210 HD
ATOM     18  H   UAP d 901     -36.201  79.490  20.212  0.00  0.00     0.097 H 
ATOM     19  H   UAP d 901     -37.208  81.784  16.977  0.00  0.00     0.085 H 
ATOM     20  H   UAP d 901     -35.116  77.834  18.636  0.00  0.00     0.134 H 
ATOM     21  O1S IDS d 903     -23.138  78.132  21.454  0.00  0.00    -0.572 OA
ATOM     22  O2  IDS d 903     -25.416  79.245  20.698  0.00  0.00    -0.244 OA
ATOM     23  O5  IDS d 903     -27.968  81.740  21.041  0.00  0.00    -0.340 OA
ATOM     24  C6  IDS d 903     -30.328  81.724  21.228  0.00  0.00     0.206 C 
ATOM     25  O2S IDS d 903     -25.010  77.927  22.962  0.00  0.00    -0.572 OA
ATOM     26  C3  IDS d 903     -27.651  79.393  19.903  0.00  0.00     0.094 C 
ATOM     27  O3S IDS d 903     -24.963  76.652  20.915  0.00  0.00    -0.572 OA
ATOM     28  O3  IDS d 903     -27.607  78.029  19.544  0.00  0.00    -0.390 OA
ATOM     29  O61 IDS d 903     -31.405  81.216  21.589  0.00  0.00    -0.646 OA
ATOM     30  C1  IDS d 903     -26.709  81.136  21.378  0.00  0.00     0.161 C 
ATOM     31  C4  IDS d 903     -29.078  79.758  20.331  0.00  0.00     0.103 C 
ATOM     32  C2  IDS d 903     -26.732  79.630  21.078  0.00  0.00     0.134 C 
ATOM     33  S   IDS d 903     -24.596  77.937  21.548  0.00  0.00     0.252 S 
ATOM     34  C5  IDS d 903     -29.064  80.896  21.360  0.00  0.00     0.152 C 
ATOM     35  O62 IDS d 903     -30.239  82.887  20.771  0.00  0.00    -0.646 OA
ATOM     36  H   IDS d 903     -27.348  79.988  19.067  0.00  0.00     0.091 H 
ATOM     37  H   IDS d 903     -27.880  77.487  20.300  0.00  0.00     0.210 HD
ATOM     38  H   IDS d 903     -25.945  81.613  20.801  0.00  0.00     0.133 H 
ATOM     39  H   IDS d 903     -29.532  78.892  20.765  0.00  0.00     0.092 H 
ATOM     40  H   IDS d 903     -27.064  79.076  21.930  0.00  0.00     0.097 H 
ATOM     41  H   IDS d 903     -28.994  80.495  22.350  0.00  0.00     0.104 H 
ATOM     42  O6  SGN d 902     -32.936  76.335  18.860  0.00  0.00    -0.254 OA
ATOM     43  C1  SGN d 902     -30.145  79.193  18.237  0.00  0.00     0.150 C 
ATOM     44  C5  SGN d 902     -32.223  78.575  19.315  0.00  0.00     0.091 C 
ATOM     45  N   SGN d 902     -30.128  80.921  16.527  0.00  0.00    -0.210 NA
ATOM     46  S1  SGN d 902     -28.785  80.574  15.429  0.00  0.00     0.156 S 
ATOM     47  C4  SGN d 902     -33.030  79.196  18.172  0.00  0.00     0.095 C 
ATOM     48  O5S SGN d 902     -33.608  73.886  19.596  0.00  0.00    -0.572 OA
ATOM     49  C2  SGN d 902     -30.905  79.828  17.075  0.00  0.00     0.081 C 
ATOM     50  S2  SGN d 902     -34.153  75.059  18.884  0.00  0.00     0.251 S 
ATOM     51  O3S SGN d 902     -27.949  79.500  15.996  0.00  0.00    -0.296 OA
ATOM     52  C6  SGN d 902     -32.945  77.351  19.861  0.00  0.00     0.067 C 
ATOM     53  O3  SGN d 902     -32.964  80.921  16.499  0.00  0.00    -0.391 OA
ATOM     54  O2S SGN d 902     -29.320  80.140  14.125  0.00  0.00    -0.296 OA
ATOM     55  O6S SGN d 902     -35.360  75.547  19.578  0.00  0.00    -0.572 OA
ATOM     56  C3  SGN d 902     -32.246  80.354  17.571  0.00  0.00     0.083 C 
ATOM     57  O5  SGN d 902     -30.946  78.152  18.812  0.00  0.00    -0.349 OA
ATOM     58  O1S SGN d 902     -27.973  81.791  15.250  0.00  0.00    -0.296 OA
ATOM     59  O4S SGN d 902     -34.499  74.683  17.500  0.00  0.00    -0.572 OA
ATOM     60  O4  SGN d 902     -34.274  79.686  18.672  0.00  0.00    -0.348 OA
ATOM     61  O1  SGN d 902     -29.809  80.205  19.189  0.00  0.00    -0.348 OA
ATOM     62  H   SGN d 902     -29.232  78.752  17.898  0.00  0.00     0.131 H 
ATOM     63  H   SGN d 902     -32.105  79.304  20.090  0.00  0.00     0.090 H 
ATOM     64  H   SGN d 902     -29.739  81.433  17.319  0.00  0.00     0.140 HD
ATOM     65  H   SGN d 902     -33.211  78.452  17.425  0.00  0.00     0.091 H 
ATOM     66  H   SGN d 902     -31.070  79.093  16.314  0.00  0.00     0.076 H 
ATOM     67  H   SGN d 902     -27.596  79.783  16.854  0.00  0.00     0.231 HD
ATOM     68  H   SGN d 902     -32.443  76.998  20.739  0.00  0.00     0.080 H 
ATOM     69  H   SGN d 902     -33.953  77.605  20.118  0.00  0.00     0.080 H 
ATOM     70  H   SGN d 902     -33.817  81.254  16.821  0.00  0.00     0.210 HD
ATOM     71  H   SGN d 902     -29.871  80.845  13.750  0.00  0.00     0.231 HD
ATOM     72  H   SGN d 902     -32.090  81.110  18.312  0.00  0.00     0.089 H 
ATOM     73  H   SGN d 902     -28.525  82.497  14.877  0.00  0.00     0.231 HD
ATOM     74  O4S SGN d 904     -23.258  84.155  19.346  0.00  0.00    -0.572 OA
ATOM     75  O5S SGN d 904     -21.460  82.812  20.227  0.00  0.00    -0.572 OA
ATOM     76  C3  SGN d 904     -26.968  83.095  24.244  0.00  0.00     0.083 C 
ATOM     77  N   SGN d 904     -27.275  84.882  25.837  0.00  0.00    -0.210 NA
ATOM     78  O5  SGN d 904     -24.182  83.665  24.308  0.00  0.00    -0.350 OA
ATOM     79  O6S SGN d 904     -23.519  81.763  19.556  0.00  0.00    -0.572 OA
ATOM     80  O3S SGN d 904     -26.815  87.355  25.078  0.00  0.00    -0.296 OA
ATOM     81  O4  SGN d 904     -26.479  81.286  22.777  0.00  0.00    -0.348 OA
ATOM     82  S2  SGN d 904     -22.922  82.970  20.158  0.00  0.00     0.251 S 
ATOM     83  O1  SGN d 904     -25.089  83.256  26.444  0.00  0.00    -0.369 OA
ATOM     84  O3  SGN d 904     -28.240  83.338  23.687  0.00  0.00    -0.391 OA
ATOM     85  O2S SGN d 904     -28.398  87.039  26.877  0.00  0.00    -0.296 OA
ATOM     86  C5  SGN d 904     -24.618  82.416  23.762  0.00  0.00     0.091 C 
ATOM     87  O6  SGN d 904     -23.555  83.177  21.786  0.00  0.00    -0.254 OA
ATOM     88  O1S SGN d 904     -26.033  86.723  27.269  0.00  0.00    -0.296 OA
ATOM     89  C1  SGN d 904     -25.018  84.176  25.351  0.00  0.00     0.147 C 
ATOM     90  C4  SGN d 904     -26.020  82.575  23.174  0.00  0.00     0.095 C 
ATOM     91  C2  SGN d 904     -26.414  84.398  24.787  0.00  0.00     0.081 C 
ATOM     92  C6  SGN d 904     -23.647  82.050  22.656  0.00  0.00     0.067 C 
ATOM     93  S1  SGN d 904     -27.125  86.575  26.290  0.00  0.00     0.156 S 
ATOM     94  H   SGN d 904     -27.059  82.367  25.024  0.00  0.00     0.089 H 
ATOM     95  H   SGN d 904     -27.086  84.324  26.670  0.00  0.00     0.140 HD
ATOM     96  H   SGN d 904     -27.536  87.256  24.437  0.00  0.00     0.231 HD
ATOM     97  H   SGN d 904     -24.200  83.114  26.805  0.00  0.00     0.212 HD
ATOM     98  H   SGN d 904     -28.163  83.996  22.980  0.00  0.00     0.210 HD
ATOM     99  H   SGN d 904     -29.110  86.938  26.226  0.00  0.00     0.231 HD
ATOM    100  H   SGN d 904     -24.645  81.658  24.516  0.00  0.00     0.090 H 
ATOM    101  H   SGN d 904     -25.201  86.416  26.875  0.00  0.00     0.231 HD
ATOM    102  H   SGN d 904     -24.606  85.096  25.712  0.00  0.00     0.131 H 
ATOM    103  H   SGN d 904     -25.991  83.256  22.349  0.00  0.00     0.091 H 
ATOM    104  H   SGN d 904     -26.366  85.114  23.994  0.00  0.00     0.076 H 
ATOM    105  H   SGN d 904     -24.008  81.200  22.117  0.00  0.00     0.080 H 
ATOM    106  H   SGN d 904     -22.688  81.802  23.059  0.00  0.00     0.080 H 
ENDROOT
TORSDOF 33
ENDMDL
MODEL 51
REMARK VINA RESULT:      -6.7      4.619      7.860
REMARK  0 active torsions:
REMARK  status: ('A' for Active; 'I' for Inactive)
REMARK       I    between atoms: C3_1  and  O3_18 
REMARK       I    between atoms: O6_3  and  C6_41 
REMARK       I    between atoms: O6_3  and  S2_27 
REMARK       I    between atoms: C1_4  and  O1_67 
REMARK       I    between atoms: O2_6  and  C2_60 
REMARK       I    between atoms: O2_6  and  S_64 
REMARK       I    between atoms: C5_7  and  C6_41 
REMARK       I    between atoms: C6_9  and  C5_36 
REMARK       I    between atoms: N_10  and  C2_26 
REMARK       I    between atoms: N_10  and  S1_14 
REMARK       I    between atoms: O2_12  and  C2_39 
REMARK       I    between atoms: O2_12  and  S_34 
REMARK       I    between atoms: C3_13  and  O3_44 
REMARK       I    between atoms: S1_14  and  O1S_57 
REMARK       I    between atoms: S1_14  and  O2S_48 
REMARK       I    between atoms: S1_14  and  O3S_38 
REMARK       I    between atoms: C6_16  and  C5_68 
REMARK       I    between atoms: C4_17  and  O4_62 
REMARK       I    between atoms: N_21  and  C2_65 
REMARK       I    between atoms: N_21  and  S1_69 
REMARK       I    between atoms: C3_25  and  O3_30 
REMARK       I    between atoms: O3S_29  and  S1_69 
REMARK       I    between atoms: O4_31  and  C1_42 
REMARK       I    between atoms: O4_31  and  C4_63 
REMARK       I    between atoms: S2_35  and  O6_49 
REMARK       I    between atoms: O1_37  and  C1_61 
REMARK       I    between atoms: O2S_45  and  S1_69 
REMARK       I    between atoms: O3_46  and  C3_55 
REMARK       I    between atoms: C5_47  and  C6_66 
REMARK       I    between atoms: O6_49  and  C6_66 
REMARK       I    between atoms: O1S_52  and  S1_69 
REMARK       I    between atoms: C1_54  and  O4_62 
REMARK       I    between atoms: C4_59  and  O1_67 
ROOT
ATOM      1  C3  UAP d 901     -24.752  76.248  25.649  0.00  0.00     0.086 C 
ATOM      2  O1S UAP d 901     -20.710  78.451  24.966  0.00  0.00    -0.572 OA
ATOM      3  C6  UAP d 901     -25.511  73.103  23.929  0.00  0.00     0.233 C 
ATOM      4  O2  UAP d 901     -22.957  77.188  24.340  0.00  0.00    -0.244 OA
ATOM      5  O3  UAP d 901     -25.751  76.917  26.388  0.00  0.00    -0.389 OA
ATOM      6  O61 UAP d 901     -25.953  72.452  24.904  0.00  0.00    -0.642 OA
ATOM      7  O5  UAP d 901     -24.621  75.062  23.080  0.00  0.00    -0.311 OA
ATOM      8  O2S UAP d 901     -22.550  78.668  26.504  0.00  0.00    -0.572 OA
ATOM      9  S   UAP d 901     -22.173  78.588  25.081  0.00  0.00     0.252 S 
ATOM     10  C5  UAP d 901     -25.107  74.360  24.115  0.00  0.00     0.147 C 
ATOM     11  C2  UAP d 901     -24.375  77.060  24.409  0.00  0.00     0.135 C 
ATOM     12  O62 UAP d 901     -25.431  72.598  22.789  0.00  0.00    -0.642 OA
ATOM     13  O3S UAP d 901     -22.610  79.815  24.388  0.00  0.00    -0.572 OA
ATOM     14  C4  UAP d 901     -25.183  74.900  25.345  0.00  0.00    -0.034 C 
ATOM     15  C1  UAP d 901     -24.901  76.460  23.112  0.00  0.00     0.167 C 
ATOM     16  H   UAP d 901     -23.860  76.162  26.233  0.00  0.00     0.093 H 
ATOM     17  H   UAP d 901     -26.556  76.990  25.852  0.00  0.00     0.210 HD
ATOM     18  H   UAP d 901     -24.838  78.019  24.511  0.00  0.00     0.097 H 
ATOM     19  H   UAP d 901     -25.568  74.324  26.109  0.00  0.00     0.085 H 
ATOM     20  H   UAP d 901     -24.412  76.914  22.275  0.00  0.00     0.134 H 
ATOM     21  O1S IDS d 903     -33.371  81.049  14.917  0.00  0.00    -0.572 OA
ATOM     22  O2  IDS d 903     -32.468  79.834  17.087  0.00  0.00    -0.244 OA
ATOM     23  O5  IDS d 903     -32.365  79.408  20.646  0.00  0.00    -0.340 OA
ATOM     24  C6  IDS d 903     -30.660  79.310  22.285  0.00  0.00     0.206 C 
ATOM     25  O2S IDS d 903     -31.940  82.332  16.375  0.00  0.00    -0.572 OA
ATOM     26  C3  IDS d 903     -30.926  78.763  18.545  0.00  0.00     0.094 C 
ATOM     27  O3S IDS d 903     -31.011  80.572  15.012  0.00  0.00    -0.572 OA
ATOM     28  O3  IDS d 903     -30.000  78.666  17.484  0.00  0.00    -0.390 OA
ATOM     29  O61 IDS d 903     -29.546  79.625  22.742  0.00  0.00    -0.646 OA
ATOM     30  C1  IDS d 903     -32.869  79.998  19.438  0.00  0.00     0.161 C 
ATOM     31  C4  IDS d 903     -30.166  78.943  19.866  0.00  0.00     0.103 C 
ATOM     32  C2  IDS d 903     -31.800  79.977  18.336  0.00  0.00     0.134 C 
ATOM     33  S   IDS d 903     -32.189  81.000  15.796  0.00  0.00     0.252 S 
ATOM     34  C5  IDS d 903     -31.004  79.742  20.873  0.00  0.00     0.152 C 
ATOM     35  O62 IDS d 903     -31.509  78.663  22.939  0.00  0.00    -0.646 OA
ATOM     36  H   IDS d 903     -31.522  77.875  18.575  0.00  0.00     0.091 H 
ATOM     37  H   IDS d 903     -29.458  79.469  17.454  0.00  0.00     0.210 HD
ATOM     38  H   IDS d 903     -33.727  79.440  19.126  0.00  0.00     0.133 H 
ATOM     39  H   IDS d 903     -29.257  79.470  19.663  0.00  0.00     0.092 H 
ATOM     40  H   IDS d 903     -31.211  80.869  18.358  0.00  0.00     0.097 H 
ATOM     41  H   IDS d 903     -30.817  80.789  20.757  0.00  0.00     0.104 H 
ATOM     42  O6  SGN d 902     -24.958  77.667  19.789  0.00  0.00    -0.254 OA
ATOM     43  C1  SGN d 902     -28.921  76.874  19.750  0.00  0.00     0.150 C 
ATOM     44  C5  SGN d 902     -27.039  77.788  20.966  0.00  0.00     0.091 C 
ATOM     45  N   SGN d 902     -30.059  74.892  20.579  0.00  0.00    -0.210 NA
ATOM     46  S1  SGN d 902     -30.744  74.045  19.185  0.00  0.00     0.156 S 
ATOM     47  C4  SGN d 902     -26.840  76.463  21.705  0.00  0.00     0.095 C 
ATOM     48  O5S SGN d 902     -22.809  78.750  18.693  0.00  0.00    -0.572 OA
ATOM     49  C2  SGN d 902     -28.765  75.532  20.462  0.00  0.00     0.081 C 
ATOM     50  S2  SGN d 902     -23.197  77.776  19.732  0.00  0.00     0.251 S 
ATOM     51  O3S SGN d 902     -30.628  74.894  17.986  0.00  0.00    -0.296 OA
ATOM     52  C6  SGN d 902     -25.694  78.458  20.720  0.00  0.00     0.067 C 
ATOM     53  O3  SGN d 902     -28.012  74.524  22.508  0.00  0.00    -0.391 OA
ATOM     54  O2S SGN d 902     -30.006  72.787  18.968  0.00  0.00    -0.296 OA
ATOM     55  O6S SGN d 902     -22.692  78.220  21.045  0.00  0.00    -0.572 OA
ATOM     56  C3  SGN d 902     -28.182  75.760  21.851  0.00  0.00     0.083 C 
ATOM     57  O5  SGN d 902     -27.647  77.528  19.691  0.00  0.00    -0.349 OA
ATOM     58  O1S SGN d 902     -32.165  73.747  19.444  0.00  0.00    -0.296 OA
ATOM     59  O4S SGN d 902     -22.633  76.452  19.408  0.00  0.00    -0.572 OA
ATOM     60  O4  SGN d 902     -26.301  76.712  23.004  0.00  0.00    -0.348 OA
ATOM     61  O1  SGN d 902     -29.902  77.658  20.432  0.00  0.00    -0.348 OA
ATOM     62  H   SGN d 902     -29.261  76.732  18.745  0.00  0.00     0.131 H 
ATOM     63  H   SGN d 902     -27.659  78.426  21.561  0.00  0.00     0.090 H 
ATOM     64  H   SGN d 902     -30.726  75.618  20.842  0.00  0.00     0.140 HD
ATOM     65  H   SGN d 902     -26.165  75.847  21.148  0.00  0.00     0.091 H 
ATOM     66  H   SGN d 902     -28.108  74.904  19.898  0.00  0.00     0.076 H 
ATOM     67  H   SGN d 902     -31.113  75.723  18.127  0.00  0.00     0.231 HD
ATOM     68  H   SGN d 902     -25.847  79.438  20.319  0.00  0.00     0.080 H 
ATOM     69  H   SGN d 902     -25.152  78.541  21.639  0.00  0.00     0.080 H 
ATOM     70  H   SGN d 902     -27.641  74.676  23.391  0.00  0.00     0.210 HD
ATOM     71  H   SGN d 902     -30.082  72.227  19.756  0.00  0.00     0.231 HD
ATOM     72  H   SGN d 902     -28.846  76.364  22.432  0.00  0.00     0.089 H 
ATOM     73  H   SGN d 902     -32.239  73.187  20.233  0.00  0.00     0.231 HD
ATOM     74  O4S SGN d 904     -37.365  77.880  18.759  0.00  0.00    -0.572 OA
ATOM     75  O5S SGN d 904     -37.769  79.200  16.782  0.00  0.00    -0.572 OA
ATOM     76  C3  SGN d 904     -34.152  82.407  21.598  0.00  0.00     0.083 C 
ATOM     77  N   SGN d 904     -35.230  83.600  23.398  0.00  0.00    -0.210 NA
ATOM     78  O5  SGN d 904     -36.559  82.701  20.110  0.00  0.00    -0.350 OA
ATOM     79  O6S SGN d 904     -35.530  78.489  17.310  0.00  0.00    -0.572 OA
ATOM     80  O3S SGN d 904     -37.241  82.465  24.651  0.00  0.00    -0.296 OA
ATOM     81  O4  SGN d 904     -33.195  81.363  19.685  0.00  0.00    -0.348 OA
ATOM     82  S2  SGN d 904     -36.821  78.929  17.875  0.00  0.00     0.251 S 
ATOM     83  O1  SGN d 904     -35.708  84.751  20.901  0.00  0.00    -0.369 OA
ATOM     84  O3  SGN d 904     -33.380  81.667  22.516  0.00  0.00    -0.391 OA
ATOM     85  O2S SGN d 904     -35.954  84.088  25.895  0.00  0.00    -0.296 OA
ATOM     86  C5  SGN d 904     -35.359  82.343  19.417  0.00  0.00     0.091 C 
ATOM     87  O6  SGN d 904     -36.572  80.404  18.800  0.00  0.00    -0.254 OA
ATOM     88  O1S SGN d 904     -37.457  84.811  24.145  0.00  0.00    -0.296 OA
ATOM     89  C1  SGN d 904     -36.351  83.525  21.261  0.00  0.00     0.147 C 
ATOM     90  C4  SGN d 904     -34.434  81.572  20.358  0.00  0.00     0.095 C 
ATOM     91  C2  SGN d 904     -35.474  82.767  22.248  0.00  0.00     0.081 C 
ATOM     92  C6  SGN d 904     -35.762  81.447  18.262  0.00  0.00     0.067 C 
ATOM     93  S1  SGN d 904     -36.528  83.752  24.577  0.00  0.00     0.156 S 
ATOM     94  H   SGN d 904     -33.615  83.290  21.319  0.00  0.00     0.089 H 
ATOM     95  H   SGN d 904     -35.014  84.537  23.058  0.00  0.00     0.140 HD
ATOM     96  H   SGN d 904     -36.627  81.771  24.936  0.00  0.00     0.231 HD
ATOM     97  H   SGN d 904     -36.265  85.236  20.272  0.00  0.00     0.212 HD
ATOM     98  H   SGN d 904     -33.863  80.866  22.772  0.00  0.00     0.210 HD
ATOM     99  H   SGN d 904     -35.344  83.385  26.171  0.00  0.00     0.231 HD
ATOM    100  H   SGN d 904     -34.845  83.213  19.067  0.00  0.00     0.090 H 
ATOM    101  H   SGN d 904     -37.828  84.583  23.279  0.00  0.00     0.231 HD
ATOM    102  H   SGN d 904     -37.298  83.760  21.700  0.00  0.00     0.131 H 
ATOM    103  H   SGN d 904     -34.892  80.646  20.638  0.00  0.00     0.091 H 
ATOM    104  H   SGN d 904     -35.973  81.868  22.545  0.00  0.00     0.076 H 
ATOM    105  H   SGN d 904     -34.891  81.032  17.798  0.00  0.00     0.080 H 
ATOM    106  H   SGN d 904     -36.298  82.001  17.521  0.00  0.00     0.080 H 
ENDROOT
TORSDOF 33
ENDMDL
MODEL 52
REMARK VINA RESULT:      -6.7      3.841      7.008
REMARK  0 active torsions:
REMARK  status: ('A' for Active; 'I' for Inactive)
REMARK       I    between atoms: C3_1  and  O3_18 
REMARK       I    between atoms: O6_3  and  C6_41 
REMARK       I    between atoms: O6_3  and  S2_27 
REMARK       I    between atoms: C1_4  and  O1_67 
REMARK       I    between atoms: O2_6  and  C2_60 
REMARK       I    between atoms: O2_6  and  S_64 
REMARK       I    between atoms: C5_7  and  C6_41 
REMARK       I    between atoms: C6_9  and  C5_36 
REMARK       I    between atoms: N_10  and  C2_26 
REMARK       I    between atoms: N_10  and  S1_14 
REMARK       I    between atoms: O2_12  and  C2_39 
REMARK       I    between atoms: O2_12  and  S_34 
REMARK       I    between atoms: C3_13  and  O3_44 
REMARK       I    between atoms: S1_14  and  O1S_57 
REMARK       I    between atoms: S1_14  and  O2S_48 
REMARK       I    between atoms: S1_14  and  O3S_38 
REMARK       I    between atoms: C6_16  and  C5_68 
REMARK       I    between atoms: C4_17  and  O4_62 
REMARK       I    between atoms: N_21  and  C2_65 
REMARK       I    between atoms: N_21  and  S1_69 
REMARK       I    between atoms: C3_25  and  O3_30 
REMARK       I    between atoms: O3S_29  and  S1_69 
REMARK       I    between atoms: O4_31  and  C1_42 
REMARK       I    between atoms: O4_31  and  C4_63 
REMARK       I    between atoms: S2_35  and  O6_49 
REMARK       I    between atoms: O1_37  and  C1_61 
REMARK       I    between atoms: O2S_45  and  S1_69 
REMARK       I    between atoms: O3_46  and  C3_55 
REMARK       I    between atoms: C5_47  and  C6_66 
REMARK       I    between atoms: O6_49  and  C6_66 
REMARK       I    between atoms: O1S_52  and  S1_69 
REMARK       I    between atoms: C1_54  and  O4_62 
REMARK       I    between atoms: C4_59  and  O1_67 
ROOT
ATOM      1  C3  UAP d 901     -26.603  76.335  26.456  0.00  0.00     0.086 C 
ATOM      2  O1S UAP d 901     -22.002  76.749  25.890  0.00  0.00    -0.572 OA
ATOM      3  C6  UAP d 901     -28.346  73.226  25.608  0.00  0.00     0.233 C 
ATOM      4  O2  UAP d 901     -24.512  76.152  25.269  0.00  0.00    -0.244 OA
ATOM      5  O3  UAP d 901     -27.335  77.497  26.786  0.00  0.00    -0.389 OA
ATOM      6  O61 UAP d 901     -29.054  73.115  26.635  0.00  0.00    -0.642 OA
ATOM      7  O5  UAP d 901     -26.754  74.392  24.401  0.00  0.00    -0.311 OA
ATOM      8  O2S UAP d 901     -23.730  78.047  26.953  0.00  0.00    -0.572 OA
ATOM      9  S   UAP d 901     -23.320  77.383  25.702  0.00  0.00     0.252 S 
ATOM     10  C5  UAP d 901     -27.525  74.270  25.492  0.00  0.00     0.147 C 
ATOM     11  C2  UAP d 901     -25.881  76.522  25.122  0.00  0.00     0.135 C 
ATOM     12  O62 UAP d 901     -28.385  72.375  24.693  0.00  0.00    -0.642 OA
ATOM     13  O3S UAP d 901     -23.236  78.383  24.621  0.00  0.00    -0.572 OA
ATOM     14  C4  UAP d 901     -27.476  75.179  26.482  0.00  0.00    -0.034 C 
ATOM     15  C1  UAP d 901     -26.507  75.732  23.981  0.00  0.00     0.167 C 
ATOM     16  H   UAP d 901     -25.842  76.162  27.188  0.00  0.00     0.093 H 
ATOM     17  H   UAP d 901     -28.022  77.646  26.118  0.00  0.00     0.210 HD
ATOM     18  H   UAP d 901     -25.968  77.556  24.862  0.00  0.00     0.097 H 
ATOM     19  H   UAP d 901     -28.090  75.047  27.300  0.00  0.00     0.085 H 
ATOM     20  H   UAP d 901     -25.836  75.699  23.148  0.00  0.00     0.134 H 
ATOM     21  O1S IDS d 903     -32.201  79.839  13.461  0.00  0.00    -0.572 OA
ATOM     22  O2  IDS d 903     -31.937  79.187  16.011  0.00  0.00    -0.244 OA
ATOM     23  O5  IDS d 903     -32.218  79.953  19.503  0.00  0.00    -0.340 OA
ATOM     24  C6  IDS d 903     -30.771  79.854  21.374  0.00  0.00     0.206 C 
ATOM     25  O2S IDS d 903     -30.494  80.993  14.716  0.00  0.00    -0.572 OA
ATOM     26  C3  IDS d 903     -30.985  78.219  17.962  0.00  0.00     0.094 C 
ATOM     27  O3S IDS d 903     -30.186  78.682  14.101  0.00  0.00    -0.572 OA
ATOM     28  O3  IDS d 903     -30.094  77.481  17.154  0.00  0.00    -0.390 OA
ATOM     29  O61 IDS d 903     -29.649  79.923  21.909  0.00  0.00    -0.646 OA
ATOM     30  C1  IDS d 903     -32.397  80.240  18.107  0.00  0.00     0.161 C 
ATOM     31  C4  IDS d 903     -30.296  78.569  19.287  0.00  0.00     0.103 C 
ATOM     32  C2  IDS d 903     -31.343  79.509  17.263  0.00  0.00     0.134 C 
ATOM     33  S   IDS d 903     -31.174  79.702  14.509  0.00  0.00     0.252 S 
ATOM     34  C5  IDS d 903     -30.846  79.882  19.859  0.00  0.00     0.152 C 
ATOM     35  O62 IDS d 903     -31.837  79.773  22.026  0.00  0.00    -0.646 OA
ATOM     36  H   IDS d 903     -31.863  77.636  18.141  0.00  0.00     0.091 H 
ATOM     37  H   IDS d 903     -29.296  78.008  16.989  0.00  0.00     0.210 HD
ATOM     38  H   IDS d 903     -33.378  79.921  17.823  0.00  0.00     0.133 H 
ATOM     39  H   IDS d 903     -29.247  78.673  19.104  0.00  0.00     0.092 H 
ATOM     40  H   IDS d 903     -30.472  80.116  17.131  0.00  0.00     0.097 H 
ATOM     41  H   IDS d 903     -30.284  80.710  19.482  0.00  0.00     0.104 H 
ATOM     42  O6  SGN d 902     -25.914  75.721  20.495  0.00  0.00    -0.254 OA
ATOM     43  C1  SGN d 902     -29.884  76.292  19.991  0.00  0.00     0.150 C 
ATOM     44  C5  SGN d 902     -27.877  76.894  21.204  0.00  0.00     0.091 C 
ATOM     45  N   SGN d 902     -31.714  75.180  21.141  0.00  0.00    -0.210 NA
ATOM     46  S1  SGN d 902     -32.572  74.191  19.952  0.00  0.00     0.156 S 
ATOM     47  C4  SGN d 902     -28.221  75.899  22.315  0.00  0.00     0.095 C 
ATOM     48  O5S SGN d 902     -23.455  75.621  19.529  0.00  0.00    -0.572 OA
ATOM     49  C2  SGN d 902     -30.271  75.289  21.074  0.00  0.00     0.081 C 
ATOM     50  S2  SGN d 902     -24.235  75.228  20.719  0.00  0.00     0.251 S 
ATOM     51  O3S SGN d 902     -32.080  74.509  18.599  0.00  0.00    -0.296 OA
ATOM     52  C6  SGN d 902     -26.368  76.969  21.016  0.00  0.00     0.067 C 
ATOM     53  O3  SGN d 902     -30.065  74.827  23.422  0.00  0.00    -0.391 OA
ATOM     54  O2S SGN d 902     -32.331  72.765  20.237  0.00  0.00    -0.296 OA
ATOM     55  O6S SGN d 902     -23.685  75.891  21.917  0.00  0.00    -0.572 OA
ATOM     56  C3  SGN d 902     -29.733  75.760  22.419  0.00  0.00     0.083 C 
ATOM     57  O5  SGN d 902     -28.458  76.439  19.971  0.00  0.00    -0.349 OA
ATOM     58  O1S SGN d 902     -34.017  74.474  20.032  0.00  0.00    -0.296 OA
ATOM     59  O4S SGN d 902     -24.172  73.764  20.893  0.00  0.00    -0.572 OA
ATOM     60  O4  SGN d 902     -27.710  76.375  23.561  0.00  0.00    -0.348 OA
ATOM     61  O1  SGN d 902     -30.552  77.532  20.236  0.00  0.00    -0.348 OA
ATOM     62  H   SGN d 902     -30.189  75.945  19.026  0.00  0.00     0.131 H 
ATOM     63  H   SGN d 902     -28.258  77.857  21.472  0.00  0.00     0.090 H 
ATOM     64  H   SGN d 902     -32.086  76.127  21.063  0.00  0.00     0.140 HD
ATOM     65  H   SGN d 902     -27.782  74.950  22.086  0.00  0.00     0.091 H 
ATOM     66  H   SGN d 902     -29.854  74.332  20.839  0.00  0.00     0.076 H 
ATOM     67  H   SGN d 902     -32.239  75.448  18.409  0.00  0.00     0.231 HD
ATOM     68  H   SGN d 902     -26.129  77.755  20.329  0.00  0.00     0.080 H 
ATOM     69  H   SGN d 902     -25.892  77.171  21.952  0.00  0.00     0.080 H 
ATOM     70  H   SGN d 902     -29.720  75.133  24.275  0.00  0.00     0.210 HD
ATOM     71  H   SGN d 902     -32.653  72.554  21.127  0.00  0.00     0.231 HD
ATOM     72  H   SGN d 902     -30.167  76.704  22.676  0.00  0.00     0.089 H 
ATOM     73  H   SGN d 902     -34.339  74.263  20.923  0.00  0.00     0.231 HD
ATOM     74  O4S SGN d 904     -37.303  79.599  17.288  0.00  0.00    -0.572 OA
ATOM     75  O5S SGN d 904     -37.076  80.246  14.976  0.00  0.00    -0.572 OA
ATOM     76  C3  SGN d 904     -32.847  83.506  19.224  0.00  0.00     0.083 C 
ATOM     77  N   SGN d 904     -33.528  85.508  20.389  0.00  0.00    -0.210 NA
ATOM     78  O5  SGN d 904     -34.885  84.055  17.317  0.00  0.00    -0.350 OA
ATOM     79  O6S SGN d 904     -35.287  79.063  16.070  0.00  0.00    -0.572 OA
ATOM     80  O3S SGN d 904     -35.887  85.569  21.541  0.00  0.00    -0.296 OA
ATOM     81  O4  SGN d 904     -32.219  81.637  17.891  0.00  0.00    -0.348 OA
ATOM     82  S2  SGN d 904     -36.361  80.059  16.250  0.00  0.00     0.251 S 
ATOM     83  O1  SGN d 904     -33.397  85.857  17.622  0.00  0.00    -0.369 OA
ATOM     84  O3  SGN d 904     -32.456  82.902  20.437  0.00  0.00    -0.391 OA
ATOM     85  O2S SGN d 904     -34.177  87.001  22.473  0.00  0.00    -0.296 OA
ATOM     86  C5  SGN d 904     -33.857  83.119  16.977  0.00  0.00     0.091 C 
ATOM     87  O6  SGN d 904     -35.652  81.591  16.741  0.00  0.00    -0.254 OA
ATOM     88  O1S SGN d 904     -35.202  87.551  20.354  0.00  0.00    -0.296 OA
ATOM     89  C1  SGN d 904     -34.463  85.099  18.201  0.00  0.00     0.147 C 
ATOM     90  C4  SGN d 904     -33.336  82.447  18.248  0.00  0.00     0.095 C 
ATOM     91  C2  SGN d 904     -33.986  84.469  19.501  0.00  0.00     0.081 C 
ATOM     92  C6  SGN d 904     -34.486  82.074  16.077  0.00  0.00     0.067 C 
ATOM     93  S1  SGN d 904     -34.751  86.454  21.227  0.00  0.00     0.156 S 
ATOM     94  H   SGN d 904     -32.010  84.021  18.802  0.00  0.00     0.089 H 
ATOM     95  H   SGN d 904     -32.965  86.155  19.837  0.00  0.00     0.140 HD
ATOM     96  H   SGN d 904     -35.587  84.849  22.117  0.00  0.00     0.231 HD
ATOM     97  H   SGN d 904     -33.700  86.260  16.794  0.00  0.00     0.212 HD
ATOM     98  H   SGN d 904     -33.212  82.434  20.824  0.00  0.00     0.210 HD
ATOM     99  H   SGN d 904     -33.884  86.271  23.041  0.00  0.00     0.231 HD
ATOM    100  H   SGN d 904     -33.041  83.608  16.489  0.00  0.00     0.090 H 
ATOM    101  H   SGN d 904     -35.577  87.183  19.538  0.00  0.00     0.231 HD
ATOM    102  H   SGN d 904     -35.286  85.760  18.381  0.00  0.00     0.131 H 
ATOM    103  H   SGN d 904     -34.116  81.868  18.696  0.00  0.00     0.091 H 
ATOM    104  H   SGN d 904     -34.794  83.933  19.952  0.00  0.00     0.076 H 
ATOM    105  H   SGN d 904     -33.798  81.271  15.912  0.00  0.00     0.080 H 
ATOM    106  H   SGN d 904     -34.736  82.494  15.126  0.00  0.00     0.080 H 
ENDROOT
TORSDOF 33
ENDMDL
MODEL 53
REMARK VINA RESULT:      -6.7      4.081     11.408
REMARK  0 active torsions:
REMARK  status: ('A' for Active; 'I' for Inactive)
REMARK       I    between atoms: C3_1  and  O3_18 
REMARK       I    between atoms: O6_3  and  C6_41 
REMARK       I    between atoms: O6_3  and  S2_27 
REMARK       I    between atoms: C1_4  and  O1_67 
REMARK       I    between atoms: O2_6  and  C2_60 
REMARK       I    between atoms: O2_6  and  S_64 
REMARK       I    between atoms: C5_7  and  C6_41 
REMARK       I    between atoms: C6_9  and  C5_36 
REMARK       I    between atoms: N_10  and  C2_26 
REMARK       I    between atoms: N_10  and  S1_14 
REMARK       I    between atoms: O2_12  and  C2_39 
REMARK       I    between atoms: O2_12  and  S_34 
REMARK       I    between atoms: C3_13  and  O3_44 
REMARK       I    between atoms: S1_14  and  O1S_57 
REMARK       I    between atoms: S1_14  and  O2S_48 
REMARK       I    between atoms: S1_14  and  O3S_38 
REMARK       I    between atoms: C6_16  and  C5_68 
REMARK       I    between atoms: C4_17  and  O4_62 
REMARK       I    between atoms: N_21  and  C2_65 
REMARK       I    between atoms: N_21  and  S1_69 
REMARK       I    between atoms: C3_25  and  O3_30 
REMARK       I    between atoms: O3S_29  and  S1_69 
REMARK       I    between atoms: O4_31  and  C1_42 
REMARK       I    between atoms: O4_31  and  C4_63 
REMARK       I    between atoms: S2_35  and  O6_49 
REMARK       I    between atoms: O1_37  and  C1_61 
REMARK       I    between atoms: O2S_45  and  S1_69 
REMARK       I    between atoms: O3_46  and  C3_55 
REMARK       I    between atoms: C5_47  and  C6_66 
REMARK       I    between atoms: O6_49  and  C6_66 
REMARK       I    between atoms: O1S_52  and  S1_69 
REMARK       I    between atoms: C1_54  and  O4_62 
REMARK       I    between atoms: C4_59  and  O1_67 
ROOT
ATOM      1  C3  UAP d 901     -34.575  83.762  16.279  0.00  0.00     0.086 C 
ATOM      2  O1S UAP d 901     -37.037  86.602  19.024  0.00  0.00    -0.572 OA
ATOM      3  C6  UAP d 901     -35.965  80.581  15.109  0.00  0.00     0.233 C 
ATOM      4  O2  UAP d 901     -35.971  84.330  18.162  0.00  0.00    -0.244 OA
ATOM      5  O3  UAP d 901     -33.214  84.070  16.063  0.00  0.00    -0.389 OA
ATOM      6  O61 UAP d 901     -35.641  80.661  13.902  0.00  0.00    -0.642 OA
ATOM      7  O5  UAP d 901     -35.988  81.500  17.232  0.00  0.00    -0.311 OA
ATOM      8  O2S UAP d 901     -34.975  86.761  17.790  0.00  0.00    -0.572 OA
ATOM      9  S   UAP d 901     -35.728  85.968  18.779  0.00  0.00     0.252 S 
ATOM     10  C5  UAP d 901     -35.635  81.570  15.940  0.00  0.00     0.147 C 
ATOM     11  C2  UAP d 901     -34.843  83.553  17.770  0.00  0.00     0.135 C 
ATOM     12  O62 UAP d 901     -36.600  79.599  15.551  0.00  0.00    -0.642 OA
ATOM     13  O3S UAP d 901     -34.967  85.906  20.041  0.00  0.00    -0.572 OA
ATOM     14  C4  UAP d 901     -34.961  82.632  15.461  0.00  0.00    -0.034 C 
ATOM     15  C1  UAP d 901     -35.067  82.094  18.144  0.00  0.00     0.167 C 
ATOM     16  H   UAP d 901     -35.189  84.585  15.977  0.00  0.00     0.093 H 
ATOM     17  H   UAP d 901     -32.666  83.319  16.339  0.00  0.00     0.210 HD
ATOM     18  H   UAP d 901     -33.964  83.871  18.292  0.00  0.00     0.097 H 
ATOM     19  H   UAP d 901     -34.707  82.640  14.461  0.00  0.00     0.085 H 
ATOM     20  H   UAP d 901     -35.487  82.030  19.126  0.00  0.00     0.134 H 
ATOM     21  O1S IDS d 903     -28.155  74.462  25.487  0.00  0.00    -0.572 OA
ATOM     22  O2  IDS d 903     -28.878  75.768  23.303  0.00  0.00    -0.244 OA
ATOM     23  O5  IDS d 903     -28.163  77.984  20.576  0.00  0.00    -0.340 OA
ATOM     24  C6  IDS d 903     -29.155  79.941  19.687  0.00  0.00     0.206 C 
ATOM     25  O2S IDS d 903     -28.301  76.865  25.646  0.00  0.00    -0.572 OA
ATOM     26  C3  IDS d 903     -30.261  77.013  21.823  0.00  0.00     0.094 C 
ATOM     27  O3S IDS d 903     -30.311  75.539  25.509  0.00  0.00    -0.572 OA
ATOM     28  O3  IDS d 903     -31.374  76.747  22.649  0.00  0.00    -0.390 OA
ATOM     29  O61 IDS d 903     -29.793  81.004  19.795  0.00  0.00    -0.646 OA
ATOM     30  C1  IDS d 903     -27.801  77.212  21.732  0.00  0.00     0.161 C 
ATOM     31  C4  IDS d 903     -30.427  78.395  21.179  0.00  0.00     0.103 C 
ATOM     32  C2  IDS d 903     -29.007  77.034  22.665  0.00  0.00     0.134 C 
ATOM     33  S   IDS d 903     -28.907  75.655  25.061  0.00  0.00     0.252 S 
ATOM     34  C5  IDS d 903     -29.061  79.035  20.899  0.00  0.00     0.152 C 
ATOM     35  O62 IDS d 903     -28.583  79.590  18.629  0.00  0.00    -0.646 OA
ATOM     36  H   IDS d 903     -30.192  76.256  21.070  0.00  0.00     0.091 H 
ATOM     37  H   IDS d 903     -31.439  77.431  23.333  0.00  0.00     0.210 HD
ATOM     38  H   IDS d 903     -27.452  76.256  21.399  0.00  0.00     0.133 H 
ATOM     39  H   IDS d 903     -30.980  79.017  21.852  0.00  0.00     0.092 H 
ATOM     40  H   IDS d 903     -29.053  77.824  23.384  0.00  0.00     0.097 H 
ATOM     41  H   IDS d 903     -28.739  79.599  21.750  0.00  0.00     0.104 H 
ATOM     42  O6  SGN d 902     -35.375  80.464  21.267  0.00  0.00    -0.254 OA
ATOM     43  C1  SGN d 902     -32.496  77.913  20.024  0.00  0.00     0.150 C 
ATOM     44  C5  SGN d 902     -33.262  80.204  20.170  0.00  0.00     0.091 C 
ATOM     45  N   SGN d 902     -32.285  76.836  17.855  0.00  0.00    -0.210 NA
ATOM     46  S1  SGN d 902     -32.526  75.100  18.093  0.00  0.00     0.156 S 
ATOM     47  C4  SGN d 902     -33.862  80.120  18.765  0.00  0.00     0.095 C 
ATOM     48  O5S SGN d 902     -36.933  81.438  23.167  0.00  0.00    -0.572 OA
ATOM     49  C2  SGN d 902     -33.076  77.779  18.618  0.00  0.00     0.081 C 
ATOM     50  S2  SGN d 902     -36.792  81.422  21.698  0.00  0.00     0.251 S 
ATOM     51  O3S SGN d 902     -32.548  74.798  19.536  0.00  0.00    -0.296 OA
ATOM     52  C6  SGN d 902     -34.118  81.103  21.052  0.00  0.00     0.067 C 
ATOM     53  O3  SGN d 902     -33.609  79.029  16.638  0.00  0.00    -0.391 OA
ATOM     54  O2S SGN d 902     -33.809  74.697  17.489  0.00  0.00    -0.296 OA
ATOM     55  O6S SGN d 902     -36.622  82.800  21.199  0.00  0.00    -0.572 OA
ATOM     56  C3  SGN d 902     -33.054  79.137  17.929  0.00  0.00     0.083 C 
ATOM     57  O5  SGN d 902     -33.247  78.892  20.754  0.00  0.00    -0.349 OA
ATOM     58  O1S SGN d 902     -31.424  74.360  17.451  0.00  0.00    -0.296 OA
ATOM     59  O4S SGN d 902     -37.995  80.822  21.090  0.00  0.00    -0.572 OA
ATOM     60  O4  SGN d 902     -33.818  81.406  18.145  0.00  0.00    -0.348 OA
ATOM     61  O1  SGN d 902     -31.110  78.251  19.933  0.00  0.00    -0.348 OA
ATOM     62  H   SGN d 902     -32.568  76.986  20.554  0.00  0.00     0.131 H 
ATOM     63  H   SGN d 902     -32.271  80.601  20.099  0.00  0.00     0.090 H 
ATOM     64  H   SGN d 902     -31.306  77.031  18.066  0.00  0.00     0.140 HD
ATOM     65  H   SGN d 902     -34.877  79.789  18.835  0.00  0.00     0.091 H 
ATOM     66  H   SGN d 902     -34.084  77.428  18.681  0.00  0.00     0.076 H 
ATOM     67  H   SGN d 902     -31.704  75.062  19.936  0.00  0.00     0.231 HD
ATOM     68  H   SGN d 902     -33.627  81.260  21.991  0.00  0.00     0.080 H 
ATOM     69  H   SGN d 902     -34.264  82.051  20.576  0.00  0.00     0.080 H 
ATOM     70  H   SGN d 902     -33.592  79.897  16.205  0.00  0.00     0.210 HD
ATOM     71  H   SGN d 902     -33.797  74.895  16.540  0.00  0.00     0.231 HD
ATOM     72  H   SGN d 902     -32.046  79.484  17.836  0.00  0.00     0.089 H 
ATOM     73  H   SGN d 902     -31.411  74.560  16.501  0.00  0.00     0.231 HD
ATOM     74  O4S SGN d 904     -25.309  73.263  19.900  0.00  0.00    -0.572 OA
ATOM     75  O5S SGN d 904     -24.893  72.407  22.115  0.00  0.00    -0.572 OA
ATOM     76  C3  SGN d 904     -24.957  79.218  21.714  0.00  0.00     0.083 C 
ATOM     77  N   SGN d 904     -22.975  80.464  21.123  0.00  0.00    -0.210 NA
ATOM     78  O5  SGN d 904     -23.246  77.090  22.511  0.00  0.00    -0.350 OA
ATOM     79  O6S SGN d 904     -26.939  73.587  21.654  0.00  0.00    -0.572 OA
ATOM     80  O3S SGN d 904     -21.511  79.642  19.103  0.00  0.00    -0.296 OA
ATOM     81  O4  SGN d 904     -26.797  77.909  22.464  0.00  0.00    -0.348 OA
ATOM     82  S2  SGN d 904     -25.498  73.504  21.344  0.00  0.00     0.251 S 
ATOM     83  O1  SGN d 904     -22.728  79.133  23.565  0.00  0.00    -0.369 OA
ATOM     84  O3  SGN d 904     -25.695  79.861  20.700  0.00  0.00    -0.391 OA
ATOM     85  O2S SGN d 904     -21.433  82.001  19.623  0.00  0.00    -0.296 OA
ATOM     86  C5  SGN d 904     -24.609  77.081  22.951  0.00  0.00     0.091 C 
ATOM     87  O6  SGN d 904     -24.724  75.018  21.791  0.00  0.00    -0.254 OA
ATOM     88  O1S SGN d 904     -20.334  80.402  21.065  0.00  0.00    -0.296 OA
ATOM     89  C1  SGN d 904     -22.691  78.397  22.339  0.00  0.00     0.147 C 
ATOM     90  C4  SGN d 904     -25.482  77.806  21.927  0.00  0.00     0.095 C 
ATOM     91  C2  SGN d 904     -23.505  79.133  21.284  0.00  0.00     0.081 C 
ATOM     92  C6  SGN d 904     -25.038  75.630  23.041  0.00  0.00     0.067 C 
ATOM     93  S1  SGN d 904     -21.495  80.639  20.189  0.00  0.00     0.156 S 
ATOM     94  H   SGN d 904     -25.050  79.774  22.624  0.00  0.00     0.089 H 
ATOM     95  H   SGN d 904     -22.794  80.836  22.056  0.00  0.00     0.140 HD
ATOM     96  H   SGN d 904     -22.276  79.801  18.529  0.00  0.00     0.231 HD
ATOM     97  H   SGN d 904     -22.209  78.665  24.238  0.00  0.00     0.212 HD
ATOM     98  H   SGN d 904     -25.613  79.361  19.874  0.00  0.00     0.210 HD
ATOM     99  H   SGN d 904     -22.201  82.147  19.047  0.00  0.00     0.231 HD
ATOM    100  H   SGN d 904     -24.708  77.571  23.896  0.00  0.00     0.090 H 
ATOM    101  H   SGN d 904     -20.384  79.505  21.432  0.00  0.00     0.231 HD
ATOM    102  H   SGN d 904     -21.669  78.306  22.032  0.00  0.00     0.131 H 
ATOM    103  H   SGN d 904     -25.474  77.270  21.001  0.00  0.00     0.091 H 
ATOM    104  H   SGN d 904     -23.446  78.602  20.357  0.00  0.00     0.076 H 
ATOM    105  H   SGN d 904     -26.091  75.570  23.223  0.00  0.00     0.080 H 
ATOM    106  H   SGN d 904     -24.535  75.134  23.844  0.00  0.00     0.080 H 
ENDROOT
TORSDOF 33
ENDMDL
MODEL 54
REMARK VINA RESULT:      -6.7      4.348      9.416
REMARK  0 active torsions:
REMARK  status: ('A' for Active; 'I' for Inactive)
REMARK       I    between atoms: C3_1  and  O3_18 
REMARK       I    between atoms: O6_3  and  C6_41 
REMARK       I    between atoms: O6_3  and  S2_27 
REMARK       I    between atoms: C1_4  and  O1_67 
REMARK       I    between atoms: O2_6  and  C2_60 
REMARK       I    between atoms: O2_6  and  S_64 
REMARK       I    between atoms: C5_7  and  C6_41 
REMARK       I    between atoms: C6_9  and  C5_36 
REMARK       I    between atoms: N_10  and  C2_26 
REMARK       I    between atoms: N_10  and  S1_14 
REMARK       I    between atoms: O2_12  and  C2_39 
REMARK       I    between atoms: O2_12  and  S_34 
REMARK       I    between atoms: C3_13  and  O3_44 
REMARK       I    between atoms: S1_14  and  O1S_57 
REMARK       I    between atoms: S1_14  and  O2S_48 
REMARK       I    between atoms: S1_14  and  O3S_38 
REMARK       I    between atoms: C6_16  and  C5_68 
REMARK       I    between atoms: C4_17  and  O4_62 
REMARK       I    between atoms: N_21  and  C2_65 
REMARK       I    between atoms: N_21  and  S1_69 
REMARK       I    between atoms: C3_25  and  O3_30 
REMARK       I    between atoms: O3S_29  and  S1_69 
REMARK       I    between atoms: O4_31  and  C1_42 
REMARK       I    between atoms: O4_31  and  C4_63 
REMARK       I    between atoms: S2_35  and  O6_49 
REMARK       I    between atoms: O1_37  and  C1_61 
REMARK       I    between atoms: O2S_45  and  S1_69 
REMARK       I    between atoms: O3_46  and  C3_55 
REMARK       I    between atoms: C5_47  and  C6_66 
REMARK       I    between atoms: O6_49  and  C6_66 
REMARK       I    between atoms: O1S_52  and  S1_69 
REMARK       I    between atoms: C1_54  and  O4_62 
REMARK       I    between atoms: C4_59  and  O1_67 
ROOT
ATOM      1  C3  UAP d 901     -36.935  84.085  17.017  0.00  0.00     0.086 C 
ATOM      2  O1S UAP d 901     -40.499  82.817  19.728  0.00  0.00    -0.572 OA
ATOM      3  C6  UAP d 901     -35.989  82.108  14.081  0.00  0.00     0.233 C 
ATOM      4  O2  UAP d 901     -38.263  82.554  18.324  0.00  0.00    -0.244 OA
ATOM      5  O3  UAP d 901     -36.113  85.143  17.460  0.00  0.00    -0.389 OA
ATOM      6  O61 UAP d 901     -35.859  83.040  13.254  0.00  0.00    -0.642 OA
ATOM      7  O5  UAP d 901     -36.489  81.402  16.226  0.00  0.00    -0.311 OA
ATOM      8  O2S UAP d 901     -39.103  84.767  19.521  0.00  0.00    -0.572 OA
ATOM      9  S   UAP d 901     -39.108  83.302  19.684  0.00  0.00     0.252 S 
ATOM     10  C5  UAP d 901     -36.336  82.394  15.336  0.00  0.00     0.147 C 
ATOM     11  C2  UAP d 901     -36.923  82.941  18.032  0.00  0.00     0.135 C 
ATOM     12  O62 UAP d 901     -35.811  80.916  13.753  0.00  0.00    -0.642 OA
ATOM     13  O3S UAP d 901     -38.422  82.946  20.941  0.00  0.00    -0.572 OA
ATOM     14  C4  UAP d 901     -36.538  83.677  15.685  0.00  0.00    -0.034 C 
ATOM     15  C1  UAP d 901     -36.127  81.729  17.566  0.00  0.00     0.167 C 
ATOM     16  H   UAP d 901     -37.951  84.414  16.949  0.00  0.00     0.093 H 
ATOM     17  H   UAP d 901     -35.195  84.836  17.519  0.00  0.00     0.210 HD
ATOM     18  H   UAP d 901     -36.434  83.308  18.909  0.00  0.00     0.097 H 
ATOM     19  H   UAP d 901     -36.405  84.407  14.968  0.00  0.00     0.085 H 
ATOM     20  H   UAP d 901     -36.352  80.885  18.184  0.00  0.00     0.134 H 
ATOM     21  O1S IDS d 903     -25.536  76.690  22.297  0.00  0.00    -0.572 OA
ATOM     22  O2  IDS d 903     -27.050  78.348  20.897  0.00  0.00    -0.244 OA
ATOM     23  O5  IDS d 903     -28.089  81.657  19.988  0.00  0.00    -0.340 OA
ATOM     24  C6  IDS d 903     -30.159  82.797  19.849  0.00  0.00     0.206 C 
ATOM     25  O2S IDS d 903     -27.197  77.948  23.513  0.00  0.00    -0.572 OA
ATOM     26  C3  IDS d 903     -28.986  79.194  19.807  0.00  0.00     0.094 C 
ATOM     27  O3S IDS d 903     -27.871  76.132  22.076  0.00  0.00    -0.572 OA
ATOM     28  O3  IDS d 903     -29.614  77.940  19.964  0.00  0.00    -0.390 OA
ATOM     29  O61 IDS d 903     -31.328  83.016  20.218  0.00  0.00    -0.646 OA
ATOM     30  C1  IDS d 903     -27.252  80.719  20.683  0.00  0.00     0.161 C 
ATOM     31  C4  IDS d 903     -30.043  80.303  19.883  0.00  0.00     0.103 C 
ATOM     32  C2  IDS d 903     -28.002  79.404  20.935  0.00  0.00     0.134 C 
ATOM     33  S   IDS d 903     -26.905  77.236  22.256  0.00  0.00     0.252 S 
ATOM     34  C5  IDS d 903     -29.435  81.600  20.435  0.00  0.00     0.152 C 
ATOM     35  O62 IDS d 903     -29.554  83.521  19.027  0.00  0.00    -0.646 OA
ATOM     36  H   IDS d 903     -28.483  79.221  18.864  0.00  0.00     0.091 H 
ATOM     37  H   IDS d 903     -30.071  77.912  20.818  0.00  0.00     0.210 HD
ATOM     38  H   IDS d 903     -26.385  80.537  20.083  0.00  0.00     0.133 H 
ATOM     39  H   IDS d 903     -30.829  79.976  20.530  0.00  0.00     0.092 H 
ATOM     40  H   IDS d 903     -28.511  79.429  21.875  0.00  0.00     0.097 H 
ATOM     41  H   IDS d 903     -29.511  81.615  21.502  0.00  0.00     0.104 H 
ATOM     42  O6  SGN d 902     -35.136  78.762  19.214  0.00  0.00    -0.254 OA
ATOM     43  C1  SGN d 902     -31.362  79.553  18.001  0.00  0.00     0.150 C 
ATOM     44  C5  SGN d 902     -33.422  80.411  18.938  0.00  0.00     0.091 C 
ATOM     45  N   SGN d 902     -30.619  80.296  15.809  0.00  0.00    -0.210 NA
ATOM     46  S1  SGN d 902     -29.663  78.989  15.096  0.00  0.00     0.156 S 
ATOM     47  C4  SGN d 902     -33.898  80.852  17.553  0.00  0.00     0.095 C 
ATOM     48  O5S SGN d 902     -36.850  77.373  20.672  0.00  0.00    -0.572 OA
ATOM     49  C2  SGN d 902     -31.791  79.976  16.599  0.00  0.00     0.081 C 
ATOM     50  S2  SGN d 902     -36.811  78.301  19.525  0.00  0.00     0.251 S 
ATOM     51  O3S SGN d 902     -29.408  77.953  16.113  0.00  0.00    -0.296 OA
ATOM     52  C6  SGN d 902     -34.608  79.960  19.780  0.00  0.00     0.067 C 
ATOM     53  O3  SGN d 902     -33.112  81.585  15.402  0.00  0.00    -0.391 OA
ATOM     54  O2S SGN d 902     -30.409  78.396  13.971  0.00  0.00    -0.296 OA
ATOM     55  O6S SGN d 902     -37.602  79.508  19.832  0.00  0.00    -0.572 OA
ATOM     56  C3  SGN d 902     -32.692  81.201  16.691  0.00  0.00     0.083 C 
ATOM     57  O5  SGN d 902     -32.529  79.296  18.794  0.00  0.00    -0.349 OA
ATOM     58  O1S SGN d 902     -28.381  79.530  14.609  0.00  0.00    -0.296 OA
ATOM     59  O4S SGN d 902     -37.367  77.637  18.330  0.00  0.00    -0.572 OA
ATOM     60  O4  SGN d 902     -34.732  82.005  17.675  0.00  0.00    -0.348 OA
ATOM     61  O1  SGN d 902     -30.535  80.570  18.569  0.00  0.00    -0.348 OA
ATOM     62  H   SGN d 902     -30.788  78.651  17.966  0.00  0.00     0.131 H 
ATOM     63  H   SGN d 902     -32.931  81.235  19.413  0.00  0.00     0.090 H 
ATOM     64  H   SGN d 902     -29.991  80.827  16.413  0.00  0.00     0.140 HD
ATOM     65  H   SGN d 902     -34.451  80.056  17.100  0.00  0.00     0.091 H 
ATOM     66  H   SGN d 902     -32.325  79.175  16.132  0.00  0.00     0.076 H 
ATOM     67  H   SGN d 902     -28.917  78.341  16.855  0.00  0.00     0.231 HD
ATOM     68  H   SGN d 902     -34.287  79.775  20.784  0.00  0.00     0.080 H 
ATOM     69  H   SGN d 902     -35.359  80.723  19.793  0.00  0.00     0.080 H 
ATOM     70  H   SGN d 902     -33.685  82.365  15.468  0.00  0.00     0.210 HD
ATOM     71  H   SGN d 902     -30.579  79.076  13.300  0.00  0.00     0.231 HD
ATOM     72  H   SGN d 902     -32.157  82.016  17.131  0.00  0.00     0.089 H 
ATOM     73  H   SGN d 902     -28.551  80.212  13.939  0.00  0.00     0.231 HD
ATOM     74  O4S SGN d 904     -22.896  80.809  18.197  0.00  0.00    -0.572 OA
ATOM     75  O5S SGN d 904     -21.907  79.232  19.729  0.00  0.00    -0.572 OA
ATOM     76  C3  SGN d 904     -26.395  83.490  22.607  0.00  0.00     0.083 C 
ATOM     77  N   SGN d 904     -25.730  85.669  23.407  0.00  0.00    -0.210 NA
ATOM     78  O5  SGN d 904     -23.673  82.697  22.839  0.00  0.00    -0.350 OA
ATOM     79  O6S SGN d 904     -24.250  79.079  19.203  0.00  0.00    -0.572 OA
ATOM     80  O3S SGN d 904     -24.193  87.166  21.892  0.00  0.00    -0.296 OA
ATOM     81  O4  SGN d 904     -26.903  81.259  21.955  0.00  0.00    -0.348 OA
ATOM     82  S2  SGN d 904     -23.119  80.004  19.414  0.00  0.00     0.251 S 
ATOM     83  O1  SGN d 904     -24.548  83.584  24.839  0.00  0.00    -0.369 OA
ATOM     84  O3  SGN d 904     -27.427  84.061  21.835  0.00  0.00    -0.391 OA
ATOM     85  O2S SGN d 904     -25.636  88.311  23.456  0.00  0.00    -0.296 OA
ATOM     86  C5  SGN d 904     -24.678  81.685  22.717  0.00  0.00     0.091 C 
ATOM     87  O6  SGN d 904     -23.489  81.071  20.762  0.00  0.00    -0.254 OA
ATOM     88  O1S SGN d 904     -23.688  87.119  24.248  0.00  0.00    -0.296 OA
ATOM     89  C1  SGN d 904     -24.108  83.883  23.511  0.00  0.00     0.147 C 
ATOM     90  C4  SGN d 904     -25.866  82.236  21.928  0.00  0.00     0.095 C 
ATOM     91  C2  SGN d 904     -25.260  84.490  22.723  0.00  0.00     0.081 C 
ATOM     92  C6  SGN d 904     -24.058  80.531  21.953  0.00  0.00     0.067 C 
ATOM     93  S1  SGN d 904     -24.770  87.134  23.248  0.00  0.00     0.156 S 
ATOM     94  H   SGN d 904     -26.778  83.238  23.574  0.00  0.00     0.089 H 
ATOM     95  H   SGN d 904     -25.784  85.445  24.401  0.00  0.00     0.140 HD
ATOM     96  H   SGN d 904     -24.908  87.176  21.237  0.00  0.00     0.231 HD
ATOM     97  H   SGN d 904     -23.815  83.197  25.343  0.00  0.00     0.212 HD
ATOM     98  H   SGN d 904     -27.084  84.291  20.957  0.00  0.00     0.210 HD
ATOM     99  H   SGN d 904     -26.345  88.313  22.794  0.00  0.00     0.231 HD
ATOM    100  H   SGN d 904     -25.021  81.370  23.680  0.00  0.00     0.090 H 
ATOM    101  H   SGN d 904     -23.124  86.343  24.104  0.00  0.00     0.231 HD
ATOM    102  H   SGN d 904     -23.291  84.570  23.575  0.00  0.00     0.131 H 
ATOM    103  H   SGN d 904     -25.562  82.462  20.928  0.00  0.00     0.091 H 
ATOM    104  H   SGN d 904     -24.920  84.748  21.742  0.00  0.00     0.076 H 
ATOM    105  H   SGN d 904     -24.809  79.809  21.707  0.00  0.00     0.080 H 
ATOM    106  H   SGN d 904     -23.312  80.043  22.544  0.00  0.00     0.080 H 
ENDROOT
TORSDOF 33
ENDMDL
MODEL 55
REMARK VINA RESULT:      -6.6      4.482      9.860
REMARK  0 active torsions:
REMARK  status: ('A' for Active; 'I' for Inactive)
REMARK       I    between atoms: C3_1  and  O3_18 
REMARK       I    between atoms: O6_3  and  C6_41 
REMARK       I    between atoms: O6_3  and  S2_27 
REMARK       I    between atoms: C1_4  and  O1_67 
REMARK       I    between atoms: O2_6  and  C2_60 
REMARK       I    between atoms: O2_6  and  S_64 
REMARK       I    between atoms: C5_7  and  C6_41 
REMARK       I    between atoms: C6_9  and  C5_36 
REMARK       I    between atoms: N_10  and  C2_26 
REMARK       I    between atoms: N_10  and  S1_14 
REMARK       I    between atoms: O2_12  and  C2_39 
REMARK       I    between atoms: O2_12  and  S_34 
REMARK       I    between atoms: C3_13  and  O3_44 
REMARK       I    between atoms: S1_14  and  O1S_57 
REMARK       I    between atoms: S1_14  and  O2S_48 
REMARK       I    between atoms: S1_14  and  O3S_38 
REMARK       I    between atoms: C6_16  and  C5_68 
REMARK       I    between atoms: C4_17  and  O4_62 
REMARK       I    between atoms: N_21  and  C2_65 
REMARK       I    between atoms: N_21  and  S1_69 
REMARK       I    between atoms: C3_25  and  O3_30 
REMARK       I    between atoms: O3S_29  and  S1_69 
REMARK       I    between atoms: O4_31  and  C1_42 
REMARK       I    between atoms: O4_31  and  C4_63 
REMARK       I    between atoms: S2_35  and  O6_49 
REMARK       I    between atoms: O1_37  and  C1_61 
REMARK       I    between atoms: O2S_45  and  S1_69 
REMARK       I    between atoms: O3_46  and  C3_55 
REMARK       I    between atoms: C5_47  and  C6_66 
REMARK       I    between atoms: O6_49  and  C6_66 
REMARK       I    between atoms: O1S_52  and  S1_69 
REMARK       I    between atoms: C1_54  and  O4_62 
REMARK       I    between atoms: C4_59  and  O1_67 
ROOT
ATOM      1  C3  UAP d 901     -36.867  82.048  19.539  0.00  0.00     0.086 C 
ATOM      2  O1S UAP d 901     -38.452  78.176  17.500  0.00  0.00    -0.572 OA
ATOM      3  C6  UAP d 901     -36.724  85.226  17.721  0.00  0.00     0.233 C 
ATOM      4  O2  UAP d 901     -37.035  80.401  17.785  0.00  0.00    -0.244 OA
ATOM      5  O3  UAP d 901     -36.269  81.926  20.812  0.00  0.00    -0.389 OA
ATOM      6  O61 UAP d 901     -37.220  85.972  18.596  0.00  0.00    -0.642 OA
ATOM      7  O5  UAP d 901     -36.058  83.116  17.043  0.00  0.00    -0.311 OA
ATOM      8  O2S UAP d 901     -37.882  78.830  19.747  0.00  0.00    -0.572 OA
ATOM      9  S   UAP d 901     -37.405  78.769  18.353  0.00  0.00     0.252 S 
ATOM     10  C5  UAP d 901     -36.578  83.926  17.978  0.00  0.00     0.147 C 
ATOM     11  C2  UAP d 901     -36.109  81.204  18.513  0.00  0.00     0.135 C 
ATOM     12  O62 UAP d 901     -36.371  85.671  16.607  0.00  0.00    -0.642 OA
ATOM     13  O3S UAP d 901     -36.187  77.941  18.286  0.00  0.00    -0.572 OA
ATOM     14  C4  UAP d 901     -36.967  83.446  19.173  0.00  0.00    -0.034 C 
ATOM     15  C1  UAP d 901     -35.277  82.035  17.545  0.00  0.00     0.167 C 
ATOM     16  H   UAP d 901     -37.865  81.664  19.564  0.00  0.00     0.093 H 
ATOM     17  H   UAP d 901     -35.365  82.277  20.779  0.00  0.00     0.210 HD
ATOM     18  H   UAP d 901     -35.423  80.592  19.059  0.00  0.00     0.097 H 
ATOM     19  H   UAP d 901     -37.357  84.106  19.863  0.00  0.00     0.085 H 
ATOM     20  H   UAP d 901     -34.974  81.432  16.714  0.00  0.00     0.134 H 
ATOM     21  O1S IDS d 903     -22.733  82.500  16.000  0.00  0.00    -0.572 OA
ATOM     22  O2  IDS d 903     -25.092  83.032  17.072  0.00  0.00    -0.244 OA
ATOM     23  O5  IDS d 903     -27.302  83.216  19.890  0.00  0.00    -0.340 OA
ATOM     24  C6  IDS d 903     -29.468  82.403  20.391  0.00  0.00     0.206 C 
ATOM     25  O2S IDS d 903     -24.012  80.625  16.818  0.00  0.00    -0.572 OA
ATOM     26  C3  IDS d 903     -27.458  83.154  17.268  0.00  0.00     0.094 C 
ATOM     27  O3S IDS d 903     -24.684  81.756  14.797  0.00  0.00    -0.572 OA
ATOM     28  O3  IDS d 903     -27.582  82.827  15.901  0.00  0.00    -0.390 OA
ATOM     29  O61 IDS d 903     -30.384  81.566  20.297  0.00  0.00    -0.646 OA
ATOM     30  C1  IDS d 903     -26.024  82.995  19.272  0.00  0.00     0.161 C 
ATOM     31  C4  IDS d 903     -28.652  82.575  18.038  0.00  0.00     0.103 C 
ATOM     32  C2  IDS d 903     -26.196  82.533  17.819  0.00  0.00     0.134 C 
ATOM     33  S   IDS d 903     -24.085  81.930  16.136  0.00  0.00     0.252 S 
ATOM     34  C5  IDS d 903     -28.261  82.250  19.486  0.00  0.00     0.152 C 
ATOM     35  O62 IDS d 903     -29.494  83.357  21.202  0.00  0.00    -0.646 OA
ATOM     36  H   IDS d 903     -27.427  84.218  17.374  0.00  0.00     0.091 H 
ATOM     37  H   IDS d 903     -27.611  81.863  15.801  0.00  0.00     0.210 HD
ATOM     38  H   IDS d 903     -25.476  83.913  19.302  0.00  0.00     0.133 H 
ATOM     39  H   IDS d 903     -28.967  81.679  17.546  0.00  0.00     0.092 H 
ATOM     40  H   IDS d 903     -26.249  81.466  17.761  0.00  0.00     0.097 H 
ATOM     41  H   IDS d 903     -27.884  81.251  19.549  0.00  0.00     0.104 H 
ATOM     42  O6  SGN d 902     -32.895  81.139  15.090  0.00  0.00    -0.254 OA
ATOM     43  C1  SGN d 902     -30.367  83.772  16.827  0.00  0.00     0.150 C 
ATOM     44  C5  SGN d 902     -31.996  82.007  17.132  0.00  0.00     0.091 C 
ATOM     45  N   SGN d 902     -30.853  86.023  17.605  0.00  0.00    -0.210 NA
ATOM     46  S1  SGN d 902     -29.959  87.150  16.576  0.00  0.00     0.156 S 
ATOM     47  C4  SGN d 902     -33.110  83.035  17.331  0.00  0.00     0.095 C 
ATOM     48  O5S SGN d 902     -33.373  79.186  13.373  0.00  0.00    -0.572 OA
ATOM     49  C2  SGN d 902     -31.444  84.837  17.021  0.00  0.00     0.081 C 
ATOM     50  S2  SGN d 902     -34.081  80.184  14.198  0.00  0.00     0.251 S 
ATOM     51  O3S SGN d 902     -29.020  86.400  15.721  0.00  0.00    -0.296 OA
ATOM     52  C6  SGN d 902     -32.540  80.775  16.422  0.00  0.00     0.067 C 
ATOM     53  O3  SGN d 902     -33.539  85.267  18.114  0.00  0.00    -0.391 OA
ATOM     54  O2S SGN d 902     -30.907  87.893  15.726  0.00  0.00    -0.296 OA
ATOM     55  O6S SGN d 902     -34.975  79.500  15.151  0.00  0.00    -0.572 OA
ATOM     56  C3  SGN d 902     -32.528  84.300  17.947  0.00  0.00     0.083 C 
ATOM     57  O5  SGN d 902     -30.970  82.580  16.305  0.00  0.00    -0.349 OA
ATOM     58  O1S SGN d 902     -29.208  88.096  17.422  0.00  0.00    -0.296 OA
ATOM     59  O4S SGN d 902     -34.875  81.074  13.329  0.00  0.00    -0.572 OA
ATOM     60  O4  SGN d 902     -34.104  82.504  18.209  0.00  0.00    -0.348 OA
ATOM     61  O1  SGN d 902     -29.702  83.542  18.071  0.00  0.00    -0.348 OA
ATOM     62  H   SGN d 902     -29.632  84.100  16.122  0.00  0.00     0.131 H 
ATOM     63  H   SGN d 902     -31.604  81.732  18.089  0.00  0.00     0.090 H 
ATOM     64  H   SGN d 902     -30.208  85.707  18.329  0.00  0.00     0.140 HD
ATOM     65  H   SGN d 902     -33.553  83.263  16.383  0.00  0.00     0.091 H 
ATOM     66  H   SGN d 902     -31.875  85.084  16.074  0.00  0.00     0.076 H 
ATOM     67  H   SGN d 902     -28.395  85.910  16.279  0.00  0.00     0.231 HD
ATOM     68  H   SGN d 902     -31.790  80.011  16.399  0.00  0.00     0.080 H 
ATOM     69  H   SGN d 902     -33.397  80.402  16.942  0.00  0.00     0.080 H 
ATOM     70  H   SGN d 902     -34.226  84.919  18.704  0.00  0.00     0.210 HD
ATOM     71  H   SGN d 902     -31.525  88.388  16.286  0.00  0.00     0.231 HD
ATOM     72  H   SGN d 902     -32.111  84.076  18.907  0.00  0.00     0.089 H 
ATOM     73  H   SGN d 902     -29.827  88.589  17.984  0.00  0.00     0.231 HD
ATOM     74  O4S SGN d 904     -23.330  87.067  20.419  0.00  0.00    -0.572 OA
ATOM     75  O5S SGN d 904     -21.390  86.191  19.287  0.00  0.00    -0.572 OA
ATOM     76  C3  SGN d 904     -25.258  81.441  22.292  0.00  0.00     0.083 C 
ATOM     77  N   SGN d 904     -24.962  80.861  24.616  0.00  0.00    -0.210 NA
ATOM     78  O5  SGN d 904     -22.588  82.421  22.311  0.00  0.00    -0.350 OA
ATOM     79  O6S SGN d 904     -23.591  85.694  18.449  0.00  0.00    -0.572 OA
ATOM     80  O3S SGN d 904     -24.692  82.786  26.383  0.00  0.00    -0.296 OA
ATOM     81  O4  SGN d 904     -25.342  81.956  19.970  0.00  0.00    -0.348 OA
ATOM     82  S2  SGN d 904     -22.786  85.921  19.665  0.00  0.00     0.251 S 
ATOM     83  O1  SGN d 904     -22.756  80.188  23.044  0.00  0.00    -0.369 OA
ATOM     84  O3  SGN d 904     -26.633  81.673  22.498  0.00  0.00    -0.391 OA
ATOM     85  O2S SGN d 904     -25.605  80.693  27.176  0.00  0.00    -0.296 OA
ATOM     86  C5  SGN d 904     -23.222  82.172  21.052  0.00  0.00     0.091 C 
ATOM     87  O6  SGN d 904     -22.842  84.479  20.670  0.00  0.00    -0.254 OA
ATOM     88  O1S SGN d 904     -23.255  80.866  26.633  0.00  0.00    -0.296 OA
ATOM     89  C1  SGN d 904     -23.016  81.556  23.368  0.00  0.00     0.147 C 
ATOM     90  C4  SGN d 904     -24.733  82.355  21.195  0.00  0.00     0.095 C 
ATOM     91  C2  SGN d 904     -24.512  81.750  23.575  0.00  0.00     0.081 C 
ATOM     92  C6  SGN d 904     -22.682  83.195  20.071  0.00  0.00     0.067 C 
ATOM     93  S1  SGN d 904     -24.613  81.318  26.279  0.00  0.00     0.156 S 
ATOM     94  H   SGN d 904     -25.113  80.420  22.006  0.00  0.00     0.089 H 
ATOM     95  H   SGN d 904     -24.530  79.952  24.451  0.00  0.00     0.140 HD
ATOM     96  H   SGN d 904     -25.586  83.079  26.150  0.00  0.00     0.231 HD
ATOM     97  H   SGN d 904     -21.803  80.062  22.912  0.00  0.00     0.212 HD
ATOM     98  H   SGN d 904     -26.770  82.597  22.757  0.00  0.00     0.210 HD
ATOM     99  H   SGN d 904     -26.495  80.996  26.935  0.00  0.00     0.231 HD
ATOM    100  H   SGN d 904     -23.027  81.176  20.716  0.00  0.00     0.090 H 
ATOM    101  H   SGN d 904     -22.611  81.281  26.038  0.00  0.00     0.231 HD
ATOM    102  H   SGN d 904     -22.477  81.799  24.260  0.00  0.00     0.131 H 
ATOM    103  H   SGN d 904     -24.953  83.374  21.432  0.00  0.00     0.091 H 
ATOM    104  H   SGN d 904     -24.702  82.765  23.853  0.00  0.00     0.076 H 
ATOM    105  H   SGN d 904     -23.230  83.148  19.153  0.00  0.00     0.080 H 
ATOM    106  H   SGN d 904     -21.653  83.003  19.851  0.00  0.00     0.080 H 
ENDROOT
TORSDOF 33
ENDMDL
MODEL 56
REMARK VINA RESULT:      -6.6      4.451     11.220
REMARK  0 active torsions:
REMARK  status: ('A' for Active; 'I' for Inactive)
REMARK       I    between atoms: C3_1  and  O3_18 
REMARK       I    between atoms: O6_3  and  C6_41 
REMARK       I    between atoms: O6_3  and  S2_27 
REMARK       I    between atoms: C1_4  and  O1_67 
REMARK       I    between atoms: O2_6  and  C2_60 
REMARK       I    between atoms: O2_6  and  S_64 
REMARK       I    between atoms: C5_7  and  C6_41 
REMARK       I    between atoms: C6_9  and  C5_36 
REMARK       I    between atoms: N_10  and  C2_26 
REMARK       I    between atoms: N_10  and  S1_14 
REMARK       I    between atoms: O2_12  and  C2_39 
REMARK       I    between atoms: O2_12  and  S_34 
REMARK       I    between atoms: C3_13  and  O3_44 
REMARK       I    between atoms: S1_14  and  O1S_57 
REMARK       I    between atoms: S1_14  and  O2S_48 
REMARK       I    between atoms: S1_14  and  O3S_38 
REMARK       I    between atoms: C6_16  and  C5_68 
REMARK       I    between atoms: C4_17  and  O4_62 
REMARK       I    between atoms: N_21  and  C2_65 
REMARK       I    between atoms: N_21  and  S1_69 
REMARK       I    between atoms: C3_25  and  O3_30 
REMARK       I    between atoms: O3S_29  and  S1_69 
REMARK       I    between atoms: O4_31  and  C1_42 
REMARK       I    between atoms: O4_31  and  C4_63 
REMARK       I    between atoms: S2_35  and  O6_49 
REMARK       I    between atoms: O1_37  and  C1_61 
REMARK       I    between atoms: O2S_45  and  S1_69 
REMARK       I    between atoms: O3_46  and  C3_55 
REMARK       I    between atoms: C5_47  and  C6_66 
REMARK       I    between atoms: O6_49  and  C6_66 
REMARK       I    between atoms: O1S_52  and  S1_69 
REMARK       I    between atoms: C1_54  and  O4_62 
REMARK       I    between atoms: C4_59  and  O1_67 
ROOT
ATOM      1  C3  UAP d 901     -26.461  86.752  15.565  0.00  0.00     0.086 C 
ATOM      2  O1S UAP d 901     -23.504  85.379  12.243  0.00  0.00    -0.572 OA
ATOM      3  C6  UAP d 901     -25.288  87.510  18.952  0.00  0.00     0.233 C 
ATOM      4  O2  UAP d 901     -24.668  85.439  14.627  0.00  0.00    -0.244 OA
ATOM      5  O3  UAP d 901     -27.843  86.688  15.285  0.00  0.00    -0.389 OA
ATOM      6  O61 UAP d 901     -25.900  88.588  19.131  0.00  0.00    -0.642 OA
ATOM      7  O5  UAP d 901     -24.780  85.709  17.592  0.00  0.00    -0.311 OA
ATOM      8  O2S UAP d 901     -25.810  86.071  12.318  0.00  0.00    -0.572 OA
ATOM      9  S   UAP d 901     -24.810  85.151  12.890  0.00  0.00     0.252 S 
ATOM     10  C5  UAP d 901     -25.440  86.859  17.799  0.00  0.00     0.147 C 
ATOM     11  C2  UAP d 901     -25.830  85.364  15.448  0.00  0.00     0.135 C 
ATOM     12  O62 UAP d 901     -24.531  87.037  19.826  0.00  0.00    -0.642 OA
ATOM     13  O3S UAP d 901     -25.238  83.758  12.659  0.00  0.00    -0.572 OA
ATOM     14  C4  UAP d 901     -26.247  87.375  16.855  0.00  0.00    -0.034 C 
ATOM     15  C1  UAP d 901     -25.470  84.750  16.795  0.00  0.00     0.167 C 
ATOM     16  H   UAP d 901     -25.969  87.366  14.840  0.00  0.00     0.093 H 
ATOM     17  H   UAP d 901     -28.281  86.130  15.947  0.00  0.00     0.210 HD
ATOM     18  H   UAP d 901     -26.565  84.724  15.008  0.00  0.00     0.097 H 
ATOM     19  H   UAP d 901     -26.738  88.259  17.059  0.00  0.00     0.085 H 
ATOM     20  H   UAP d 901     -24.821  83.912  16.651  0.00  0.00     0.134 H 
ATOM     21  O1S IDS d 903     -30.107  74.460  22.501  0.00  0.00    -0.572 OA
ATOM     22  O2  IDS d 903     -29.986  76.984  21.718  0.00  0.00    -0.244 OA
ATOM     23  O5  IDS d 903     -31.423  79.864  20.137  0.00  0.00    -0.340 OA
ATOM     24  C6  IDS d 903     -30.747  81.372  18.442  0.00  0.00     0.206 C 
ATOM     25  O2S IDS d 903     -30.012  74.866  20.125  0.00  0.00    -0.572 OA
ATOM     26  C3  IDS d 903     -29.051  78.992  20.854  0.00  0.00     0.094 C 
ATOM     27  O3S IDS d 903     -28.050  75.202  21.488  0.00  0.00    -0.572 OA
ATOM     28  O3  IDS d 903     -27.761  78.427  20.955  0.00  0.00    -0.390 OA
ATOM     29  O61 IDS d 903     -30.139  81.657  17.394  0.00  0.00    -0.646 OA
ATOM     30  C1  IDS d 903     -31.464  78.516  20.631  0.00  0.00     0.161 C 
ATOM     31  C4  IDS d 903     -29.096  79.940  19.649  0.00  0.00     0.103 C 
ATOM     32  C2  IDS d 903     -30.061  77.893  20.625  0.00  0.00     0.134 C 
ATOM     33  S   IDS d 903     -29.524  75.306  21.444  0.00  0.00     0.252 S 
ATOM     34  C5  IDS d 903     -30.511  80.007  19.059  0.00  0.00     0.152 C 
ATOM     35  O62 IDS d 903     -31.548  82.154  19.003  0.00  0.00    -0.646 OA
ATOM     36  H   IDS d 903     -29.275  79.522  21.755  0.00  0.00     0.091 H 
ATOM     37  H   IDS d 903     -27.555  77.946  20.139  0.00  0.00     0.210 HD
ATOM     38  H   IDS d 903     -31.850  78.538  21.629  0.00  0.00     0.133 H 
ATOM     39  H   IDS d 903     -28.418  79.575  18.907  0.00  0.00     0.092 H 
ATOM     40  H   IDS d 903     -29.868  77.396  19.698  0.00  0.00     0.097 H 
ATOM     41  H   IDS d 903     -30.635  79.246  18.317  0.00  0.00     0.104 H 
ATOM     42  O6  SGN d 902     -24.352  81.522  17.709  0.00  0.00    -0.254 OA
ATOM     43  C1  SGN d 902     -27.356  81.436  20.413  0.00  0.00     0.150 C 
ATOM     44  C5  SGN d 902     -26.658  81.982  18.161  0.00  0.00     0.091 C 
ATOM     45  N   SGN d 902     -28.053  83.200  21.933  0.00  0.00    -0.210 NA
ATOM     46  S1  SGN d 902     -27.700  82.658  23.580  0.00  0.00     0.156 S 
ATOM     47  C4  SGN d 902     -26.417  83.439  18.562  0.00  0.00     0.095 C 
ATOM     48  O5S SGN d 902     -22.412  80.321  16.375  0.00  0.00    -0.572 OA
ATOM     49  C2  SGN d 902     -27.133  82.878  20.862  0.00  0.00     0.081 C 
ATOM     50  S2  SGN d 902     -22.907  81.671  16.708  0.00  0.00     0.251 S 
ATOM     51  O3S SGN d 902     -27.315  81.235  23.560  0.00  0.00    -0.296 OA
ATOM     52  C6  SGN d 902     -25.645  81.554  17.108  0.00  0.00     0.067 C 
ATOM     53  O3  SGN d 902     -27.143  85.150  20.086  0.00  0.00    -0.391 OA
ATOM     54  O2S SGN d 902     -26.590  83.458  24.130  0.00  0.00    -0.296 OA
ATOM     55  O6S SGN d 902     -23.242  82.399  15.470  0.00  0.00    -0.572 OA
ATOM     56  C3  SGN d 902     -27.370  83.818  19.687  0.00  0.00     0.083 C 
ATOM     57  O5  SGN d 902     -26.484  81.143  19.313  0.00  0.00    -0.349 OA
ATOM     58  O1S SGN d 902     -28.899  82.834  24.420  0.00  0.00    -0.296 OA
ATOM     59  O4S SGN d 902     -21.869  82.411  17.450  0.00  0.00    -0.572 OA
ATOM     60  O4  SGN d 902     -26.656  84.292  17.442  0.00  0.00    -0.348 OA
ATOM     61  O1  SGN d 902     -28.733  81.255  20.075  0.00  0.00    -0.348 OA
ATOM     62  H   SGN d 902     -27.124  80.752  21.203  0.00  0.00     0.131 H 
ATOM     63  H   SGN d 902     -27.650  81.891  17.769  0.00  0.00     0.090 H 
ATOM     64  H   SGN d 902     -28.957  82.802  21.677  0.00  0.00     0.140 HD
ATOM     65  H   SGN d 902     -25.405  83.551  18.889  0.00  0.00     0.091 H 
ATOM     66  H   SGN d 902     -26.128  82.991  21.211  0.00  0.00     0.076 H 
ATOM     67  H   SGN d 902     -28.045  80.707  23.198  0.00  0.00     0.231 HD
ATOM     68  H   SGN d 902     -25.897  80.581  16.740  0.00  0.00     0.080 H 
ATOM     69  H   SGN d 902     -25.653  82.245  16.290  0.00  0.00     0.080 H 
ATOM     70  H   SGN d 902     -27.296  85.744  19.333  0.00  0.00     0.210 HD
ATOM     71  H   SGN d 902     -26.841  84.394  24.144  0.00  0.00     0.231 HD
ATOM     72  H   SGN d 902     -28.382  83.733  19.349  0.00  0.00     0.089 H 
ATOM     73  H   SGN d 902     -29.151  83.771  24.433  0.00  0.00     0.231 HD
ATOM     74  O4S SGN d 904     -34.188  78.778  24.835  0.00  0.00    -0.572 OA
ATOM     75  O5S SGN d 904     -34.020  76.398  25.178  0.00  0.00    -0.572 OA
ATOM     76  C3  SGN d 904     -34.295  78.267  18.622  0.00  0.00     0.083 C 
ATOM     77  N   SGN d 904     -36.403  78.608  17.496  0.00  0.00    -0.210 NA
ATOM     78  O5  SGN d 904     -35.683  76.632  20.490  0.00  0.00    -0.350 OA
ATOM     79  O6S SGN d 904     -32.192  77.593  24.168  0.00  0.00    -0.572 OA
ATOM     80  O3S SGN d 904     -38.287  79.978  18.710  0.00  0.00    -0.296 OA
ATOM     81  O4  SGN d 904     -32.282  77.728  19.771  0.00  0.00    -0.348 OA
ATOM     82  S2  SGN d 904     -33.660  77.513  24.288  0.00  0.00     0.251 S 
ATOM     83  O1  SGN d 904     -36.000  75.952  18.256  0.00  0.00    -0.369 OA
ATOM     84  O3  SGN d 904     -33.850  79.546  18.230  0.00  0.00    -0.391 OA
ATOM     85  O2S SGN d 904     -38.318  79.979  16.294  0.00  0.00    -0.296 OA
ATOM     86  C5  SGN d 904     -34.256  76.551  20.430  0.00  0.00     0.091 C 
ATOM     87  O6  SGN d 904     -34.355  77.228  22.698  0.00  0.00    -0.254 OA
ATOM     88  O1S SGN d 904     -38.975  78.000  17.517  0.00  0.00    -0.296 OA
ATOM     89  C1  SGN d 904     -36.310  76.942  19.241  0.00  0.00     0.147 C 
ATOM     90  C4  SGN d 904     -33.685  77.890  19.963  0.00  0.00     0.095 C 
ATOM     91  C2  SGN d 904     -35.804  78.298  18.770  0.00  0.00     0.081 C 
ATOM     92  C6  SGN d 904     -33.766  76.257  21.834  0.00  0.00     0.067 C 
ATOM     93  S1  SGN d 904     -38.072  79.165  17.500  0.00  0.00     0.156 S 
ATOM     94  H   SGN d 904     -34.002  77.551  17.882  0.00  0.00     0.089 H 
ATOM     95  H   SGN d 904     -36.364  77.762  16.926  0.00  0.00     0.140 HD
ATOM     96  H   SGN d 904     -37.692  80.743  18.695  0.00  0.00     0.231 HD
ATOM     97  H   SGN d 904     -36.322  75.087  18.555  0.00  0.00     0.212 HD
ATOM     98  H   SGN d 904     -34.113  80.198  18.897  0.00  0.00     0.210 HD
ATOM     99  H   SGN d 904     -37.720  80.743  16.291  0.00  0.00     0.231 HD
ATOM    100  H   SGN d 904     -33.945  75.788  19.747  0.00  0.00     0.090 H 
ATOM    101  H   SGN d 904     -38.806  77.471  18.313  0.00  0.00     0.231 HD
ATOM    102  H   SGN d 904     -37.371  76.961  19.376  0.00  0.00     0.131 H 
ATOM    103  H   SGN d 904     -33.900  78.647  20.688  0.00  0.00     0.091 H 
ATOM    104  H   SGN d 904     -36.069  79.044  19.489  0.00  0.00     0.076 H 
ATOM    105  H   SGN d 904     -32.699  76.331  21.874  0.00  0.00     0.080 H 
ATOM    106  H   SGN d 904     -34.040  75.267  22.133  0.00  0.00     0.080 H 
ENDROOT
TORSDOF 33
ENDMDL
MODEL 57
REMARK VINA RESULT:      -6.5      4.815      8.871
REMARK  0 active torsions:
REMARK  status: ('A' for Active; 'I' for Inactive)
REMARK       I    between atoms: C3_1  and  O3_18 
REMARK       I    between atoms: O6_3  and  C6_41 
REMARK       I    between atoms: O6_3  and  S2_27 
REMARK       I    between atoms: C1_4  and  O1_67 
REMARK       I    between atoms: O2_6  and  C2_60 
REMARK       I    between atoms: O2_6  and  S_64 
REMARK       I    between atoms: C5_7  and  C6_41 
REMARK       I    between atoms: C6_9  and  C5_36 
REMARK       I    between atoms: N_10  and  C2_26 
REMARK       I    between atoms: N_10  and  S1_14 
REMARK       I    between atoms: O2_12  and  C2_39 
REMARK       I    between atoms: O2_12  and  S_34 
REMARK       I    between atoms: C3_13  and  O3_44 
REMARK       I    between atoms: S1_14  and  O1S_57 
REMARK       I    between atoms: S1_14  and  O2S_48 
REMARK       I    between atoms: S1_14  and  O3S_38 
REMARK       I    between atoms: C6_16  and  C5_68 
REMARK       I    between atoms: C4_17  and  O4_62 
REMARK       I    between atoms: N_21  and  C2_65 
REMARK       I    between atoms: N_21  and  S1_69 
REMARK       I    between atoms: C3_25  and  O3_30 
REMARK       I    between atoms: O3S_29  and  S1_69 
REMARK       I    between atoms: O4_31  and  C1_42 
REMARK       I    between atoms: O4_31  and  C4_63 
REMARK       I    between atoms: S2_35  and  O6_49 
REMARK       I    between atoms: O1_37  and  C1_61 
REMARK       I    between atoms: O2S_45  and  S1_69 
REMARK       I    between atoms: O3_46  and  C3_55 
REMARK       I    between atoms: C5_47  and  C6_66 
REMARK       I    between atoms: O6_49  and  C6_66 
REMARK       I    between atoms: O1S_52  and  S1_69 
REMARK       I    between atoms: C1_54  and  O4_62 
REMARK       I    between atoms: C4_59  and  O1_67 
ROOT
ATOM      1  C3  UAP d 901     -25.118  81.558  15.745  0.00  0.00     0.086 C 
ATOM      2  O1S UAP d 901     -22.142  81.446  19.322  0.00  0.00    -0.572 OA
ATOM      3  C6  UAP d 901     -25.198  84.400  13.434  0.00  0.00     0.233 C 
ATOM      4  O2  UAP d 901     -23.976  82.436  17.680  0.00  0.00    -0.244 OA
ATOM      5  O3  UAP d 901     -26.113  80.559  15.683  0.00  0.00    -0.389 OA
ATOM      6  O61 UAP d 901     -25.228  83.769  12.353  0.00  0.00    -0.642 OA
ATOM      7  O5  UAP d 901     -25.124  84.391  15.747  0.00  0.00    -0.311 OA
ATOM      8  O2S UAP d 901     -23.634  79.873  18.274  0.00  0.00    -0.572 OA
ATOM      9  S   UAP d 901     -23.529  81.214  18.876  0.00  0.00     0.252 S 
ATOM     10  C5  UAP d 901     -25.167  83.724  14.583  0.00  0.00     0.147 C 
ATOM     11  C2  UAP d 901     -25.248  82.359  17.041  0.00  0.00     0.135 C 
ATOM     12  O62 UAP d 901     -25.187  85.649  13.461  0.00  0.00    -0.642 OA
ATOM     13  O3S UAP d 901     -24.440  81.306  20.032  0.00  0.00    -0.572 OA
ATOM     14  C4  UAP d 901     -25.169  82.379  14.553  0.00  0.00    -0.034 C 
ATOM     15  C1  UAP d 901     -25.803  83.762  16.831  0.00  0.00     0.167 C 
ATOM     16  H   UAP d 901     -24.148  81.108  15.768  0.00  0.00     0.093 H 
ATOM     17  H   UAP d 901     -26.989  80.976  15.663  0.00  0.00     0.210 HD
ATOM     18  H   UAP d 901     -25.952  81.842  17.658  0.00  0.00     0.097 H 
ATOM     19  H   UAP d 901     -25.208  81.910  13.636  0.00  0.00     0.085 H 
ATOM     20  H   UAP d 901     -25.643  84.353  17.708  0.00  0.00     0.134 H 
ATOM     21  O1S IDS d 903     -36.661  88.857  20.842  0.00  0.00    -0.572 OA
ATOM     22  O2  IDS d 903     -35.037  87.443  19.305  0.00  0.00    -0.244 OA
ATOM     23  O5  IDS d 903     -34.135  84.401  17.634  0.00  0.00    -0.340 OA
ATOM     24  C6  IDS d 903     -32.203  83.039  17.537  0.00  0.00     0.206 C 
ATOM     25  O2S IDS d 903     -35.437  87.065  21.898  0.00  0.00    -0.572 OA
ATOM     26  C3  IDS d 903     -32.995  86.646  18.386  0.00  0.00     0.094 C 
ATOM     27  O3S IDS d 903     -34.294  89.083  21.237  0.00  0.00    -0.572 OA
ATOM     28  O3  IDS d 903     -32.302  87.692  19.031  0.00  0.00    -0.390 OA
ATOM     29  O61 IDS d 903     -31.171  82.546  18.029  0.00  0.00    -0.646 OA
ATOM     30  C1  IDS d 903     -35.015  85.225  18.416  0.00  0.00     0.161 C 
ATOM     31  C4  IDS d 903     -32.090  85.409  18.311  0.00  0.00     0.103 C 
ATOM     32  C2  IDS d 903     -34.219  86.283  19.193  0.00  0.00     0.134 C 
ATOM     33  S   IDS d 903     -35.375  88.138  20.889  0.00  0.00     0.252 S 
ATOM     34  C5  IDS d 903     -32.923  84.121  18.317  0.00  0.00     0.152 C 
ATOM     35  O62 IDS d 903     -32.675  82.677  16.435  0.00  0.00    -0.646 OA
ATOM     36  H   IDS d 903     -33.276  86.962  17.404  0.00  0.00     0.091 H 
ATOM     37  H   IDS d 903     -32.046  87.408  19.922  0.00  0.00     0.210 HD
ATOM     38  H   IDS d 903     -35.706  85.700  17.752  0.00  0.00     0.133 H 
ATOM     39  H   IDS d 903     -31.439  85.416  19.161  0.00  0.00     0.092 H 
ATOM     40  H   IDS d 903     -33.936  85.917  20.157  0.00  0.00     0.097 H 
ATOM     41  H   IDS d 903     -33.088  83.795  19.323  0.00  0.00     0.104 H 
ATOM     42  O6  SGN d 902     -26.853  86.264  19.097  0.00  0.00    -0.254 OA
ATOM     43  C1  SGN d 902     -30.321  86.442  17.026  0.00  0.00     0.150 C 
ATOM     44  C5  SGN d 902     -28.610  85.046  18.018  0.00  0.00     0.091 C 
ATOM     45  N   SGN d 902     -30.625  86.468  14.615  0.00  0.00    -0.210 NA
ATOM     46  S1  SGN d 902     -31.272  88.054  14.173  0.00  0.00     0.156 S 
ATOM     47  C4  SGN d 902     -27.882  84.942  16.676  0.00  0.00     0.095 C 
ATOM     48  O5S SGN d 902     -25.384  86.906  21.199  0.00  0.00    -0.572 OA
ATOM     49  C2  SGN d 902     -29.633  86.367  15.666  0.00  0.00     0.081 C 
ATOM     50  S2  SGN d 902     -25.254  86.354  19.837  0.00  0.00     0.251 S 
ATOM     51  O3S SGN d 902     -31.649  88.790  15.394  0.00  0.00    -0.296 OA
ATOM     52  C6  SGN d 902     -27.604  85.053  19.161  0.00  0.00     0.067 C 
ATOM     53  O3  SGN d 902     -28.235  84.972  14.299  0.00  0.00    -0.391 OA
ATOM     54  O2S SGN d 902     -30.242  88.815  13.441  0.00  0.00    -0.296 OA
ATOM     55  O6S SGN d 902     -24.667  85.002  19.900  0.00  0.00    -0.572 OA
ATOM     56  C3  SGN d 902     -28.894  85.041  15.543  0.00  0.00     0.083 C 
ATOM     57  O5  SGN d 902     -29.341  86.282  18.061  0.00  0.00    -0.349 OA
ATOM     58  O1S SGN d 902     -32.458  87.877  13.316  0.00  0.00    -0.296 OA
ATOM     59  O4S SGN d 902     -24.387  87.231  19.027  0.00  0.00    -0.572 OA
ATOM     60  O4  SGN d 902     -27.207  83.686  16.591  0.00  0.00    -0.348 OA
ATOM     61  O1  SGN d 902     -31.345  85.448  17.092  0.00  0.00    -0.348 OA
ATOM     62  H   SGN d 902     -30.786  87.396  17.164  0.00  0.00     0.131 H 
ATOM     63  H   SGN d 902     -29.269  84.209  18.119  0.00  0.00     0.090 H 
ATOM     64  H   SGN d 902     -31.418  85.893  14.900  0.00  0.00     0.140 HD
ATOM     65  H   SGN d 902     -27.170  85.738  16.599  0.00  0.00     0.091 H 
ATOM     66  H   SGN d 902     -28.936  87.174  15.574  0.00  0.00     0.076 H 
ATOM     67  H   SGN d 902     -32.326  88.291  15.877  0.00  0.00     0.231 HD
ATOM     68  H   SGN d 902     -28.121  84.997  20.097  0.00  0.00     0.080 H 
ATOM     69  H   SGN d 902     -26.949  84.211  19.077  0.00  0.00     0.080 H 
ATOM     70  H   SGN d 902     -27.767  84.126  14.227  0.00  0.00     0.210 HD
ATOM     71  H   SGN d 902     -29.993  88.332  12.638  0.00  0.00     0.231 HD
ATOM     72  H   SGN d 902     -29.587  84.229  15.605  0.00  0.00     0.089 H 
ATOM     73  H   SGN d 902     -32.208  87.392  12.513  0.00  0.00     0.231 HD
ATOM     74  O4S SGN d 904     -38.698  86.513  15.265  0.00  0.00    -0.572 OA
ATOM     75  O5S SGN d 904     -39.852  87.732  16.997  0.00  0.00    -0.572 OA
ATOM     76  C3  SGN d 904     -36.534  82.194  19.206  0.00  0.00     0.083 C 
ATOM     77  N   SGN d 904     -37.560  80.010  19.164  0.00  0.00    -0.210 NA
ATOM     78  O5  SGN d 904     -39.153  83.304  19.165  0.00  0.00    -0.350 OA
ATOM     79  O6S SGN d 904     -37.446  87.659  16.984  0.00  0.00    -0.572 OA
ATOM     80  O3S SGN d 904     -38.856  79.254  17.007  0.00  0.00    -0.296 OA
ATOM     81  O4  SGN d 904     -35.687  84.412  19.375  0.00  0.00    -0.348 OA
ATOM     82  S2  SGN d 904     -38.677  86.900  16.689  0.00  0.00     0.251 S 
ATOM     83  O1  SGN d 904     -38.830  81.767  20.922  0.00  0.00    -0.369 OA
ATOM     84  O3  SGN d 904     -35.414  81.710  18.500  0.00  0.00    -0.391 OA
ATOM     85  O2S SGN d 904     -37.910  77.507  18.383  0.00  0.00    -0.296 OA
ATOM     86  C5  SGN d 904     -38.055  84.140  19.546  0.00  0.00     0.091 C 
ATOM     87  O6  SGN d 904     -38.717  85.454  17.690  0.00  0.00    -0.254 OA
ATOM     88  O1S SGN d 904     -39.865  78.718  19.129  0.00  0.00    -0.296 OA
ATOM     89  C1  SGN d 904     -38.990  81.924  19.509  0.00  0.00     0.147 C 
ATOM     90  C4  SGN d 904     -36.778  83.655  18.859  0.00  0.00     0.095 C 
ATOM     91  C2  SGN d 904     -37.754  81.391  18.799  0.00  0.00     0.081 C 
ATOM     92  C6  SGN d 904     -38.379  85.543  19.072  0.00  0.00     0.067 C 
ATOM     93  S1  SGN d 904     -38.594  78.815  18.389  0.00  0.00     0.156 S 
ATOM     94  H   SGN d 904     -36.353  82.102  20.257  0.00  0.00     0.089 H 
ATOM     95  H   SGN d 904     -37.708  79.935  20.171  0.00  0.00     0.140 HD
ATOM     96  H   SGN d 904     -38.017  79.317  16.524  0.00  0.00     0.231 HD
ATOM     97  H   SGN d 904     -39.617  82.107  21.376  0.00  0.00     0.212 HD
ATOM     98  H   SGN d 904     -35.573  81.791  17.547  0.00  0.00     0.210 HD
ATOM     99  H   SGN d 904     -37.075  77.581  17.894  0.00  0.00     0.231 HD
ATOM    100  H   SGN d 904     -37.906  84.116  20.605  0.00  0.00     0.090 H 
ATOM    101  H   SGN d 904     -40.307  79.581  19.128  0.00  0.00     0.231 HD
ATOM    102  H   SGN d 904     -39.862  81.382  19.208  0.00  0.00     0.131 H 
ATOM    103  H   SGN d 904     -36.872  83.768  17.800  0.00  0.00     0.091 H 
ATOM    104  H   SGN d 904     -37.890  81.474  17.742  0.00  0.00     0.076 H 
ATOM    105  H   SGN d 904     -37.528  86.180  19.201  0.00  0.00     0.080 H 
ATOM    106  H   SGN d 904     -39.189  85.957  19.636  0.00  0.00     0.080 H 
ENDROOT
TORSDOF 33
ENDMDL
MODEL 58
REMARK VINA RESULT:      -6.5      4.029     10.897
REMARK  0 active torsions:
REMARK  status: ('A' for Active; 'I' for Inactive)
REMARK       I    between atoms: C3_1  and  O3_18 
REMARK       I    between atoms: O6_3  and  C6_41 
REMARK       I    between atoms: O6_3  and  S2_27 
REMARK       I    between atoms: C1_4  and  O1_67 
REMARK       I    between atoms: O2_6  and  C2_60 
REMARK       I    between atoms: O2_6  and  S_64 
REMARK       I    between atoms: C5_7  and  C6_41 
REMARK       I    between atoms: C6_9  and  C5_36 
REMARK       I    between atoms: N_10  and  C2_26 
REMARK       I    between atoms: N_10  and  S1_14 
REMARK       I    between atoms: O2_12  and  C2_39 
REMARK       I    between atoms: O2_12  and  S_34 
REMARK       I    between atoms: C3_13  and  O3_44 
REMARK       I    between atoms: S1_14  and  O1S_57 
REMARK       I    between atoms: S1_14  and  O2S_48 
REMARK       I    between atoms: S1_14  and  O3S_38 
REMARK       I    between atoms: C6_16  and  C5_68 
REMARK       I    between atoms: C4_17  and  O4_62 
REMARK       I    between atoms: N_21  and  C2_65 
REMARK       I    between atoms: N_21  and  S1_69 
REMARK       I    between atoms: C3_25  and  O3_30 
REMARK       I    between atoms: O3S_29  and  S1_69 
REMARK       I    between atoms: O4_31  and  C1_42 
REMARK       I    between atoms: O4_31  and  C4_63 
REMARK       I    between atoms: S2_35  and  O6_49 
REMARK       I    between atoms: O1_37  and  C1_61 
REMARK       I    between atoms: O2S_45  and  S1_69 
REMARK       I    between atoms: O3_46  and  C3_55 
REMARK       I    between atoms: C5_47  and  C6_66 
REMARK       I    between atoms: O6_49  and  C6_66 
REMARK       I    between atoms: O1S_52  and  S1_69 
REMARK       I    between atoms: C1_54  and  O4_62 
REMARK       I    between atoms: C4_59  and  O1_67 
ROOT
ATOM      1  C3  UAP d 901     -38.091  85.062  12.863  0.00  0.00     0.086 C 
ATOM      2  O1S UAP d 901     -39.662  89.235  14.197  0.00  0.00    -0.572 OA
ATOM      3  C6  UAP d 901     -39.921  81.996  13.686  0.00  0.00     0.233 C 
ATOM      4  O2  UAP d 901     -38.976  86.681  14.416  0.00  0.00    -0.244 OA
ATOM      5  O3  UAP d 901     -36.800  84.993  12.297  0.00  0.00    -0.389 OA
ATOM      6  O61 UAP d 901     -39.879  81.439  12.565  0.00  0.00    -0.642 OA
ATOM      7  O5  UAP d 901     -39.392  83.797  15.038  0.00  0.00    -0.311 OA
ATOM      8  O2S UAP d 901     -37.934  88.436  12.722  0.00  0.00    -0.572 OA
ATOM      9  S   UAP d 901     -38.489  88.347  14.085  0.00  0.00     0.252 S 
ATOM     10  C5  UAP d 901     -39.343  83.187  13.844  0.00  0.00     0.147 C 
ATOM     11  C2  UAP d 901     -38.021  85.631  14.280  0.00  0.00     0.135 C 
ATOM     12  O62 UAP d 901     -40.500  81.464  14.657  0.00  0.00    -0.642 OA
ATOM     13  O3S UAP d 901     -37.464  88.760  15.061  0.00  0.00    -0.572 OA
ATOM     14  C4  UAP d 901     -38.729  83.763  12.795  0.00  0.00    -0.034 C 
ATOM     15  C1  UAP d 901     -38.250  84.585  15.363  0.00  0.00     0.167 C 
ATOM     16  H   UAP d 901     -38.703  85.735  12.299  0.00  0.00     0.093 H 
ATOM     17  H   UAP d 901     -36.253  84.381  12.814  0.00  0.00     0.210 HD
ATOM     18  H   UAP d 901     -37.028  86.002  14.418  0.00  0.00     0.097 H 
ATOM     19  H   UAP d 901     -38.713  83.255  11.898  0.00  0.00     0.085 H 
ATOM     20  H   UAP d 901     -38.436  85.065  16.301  0.00  0.00     0.134 H 
ATOM     21  O1S IDS d 903     -30.350  80.274  24.249  0.00  0.00    -0.572 OA
ATOM     22  O2  IDS d 903     -31.470  80.496  21.862  0.00  0.00    -0.244 OA
ATOM     23  O5  IDS d 903     -31.257  81.001  18.319  0.00  0.00    -0.340 OA
ATOM     24  C6  IDS d 903     -32.296  82.442  16.755  0.00  0.00     0.206 C 
ATOM     25  O2S IDS d 903     -30.297  82.452  23.212  0.00  0.00    -0.572 OA
ATOM     26  C3  IDS d 903     -33.071  81.109  20.216  0.00  0.00     0.094 C 
ATOM     27  O3S IDS d 903     -32.367  81.585  24.094  0.00  0.00    -0.572 OA
ATOM     28  O3  IDS d 903     -33.979  81.459  21.238  0.00  0.00    -0.390 OA
ATOM     29  O61 IDS d 903     -32.821  83.521  16.424  0.00  0.00    -0.646 OA
ATOM     30  C1  IDS d 903     -30.691  80.817  19.626  0.00  0.00     0.161 C 
ATOM     31  C4  IDS d 903     -33.289  82.028  19.007  0.00  0.00     0.103 C 
ATOM     32  C2  IDS d 903     -31.658  81.310  20.711  0.00  0.00     0.134 C 
ATOM     33  S   IDS d 903     -31.100  81.234  23.419  0.00  0.00     0.252 S 
ATOM     34  C5  IDS d 903     -31.985  82.215  18.221  0.00  0.00     0.152 C 
ATOM     35  O62 IDS d 903     -32.007  81.542  15.933  0.00  0.00    -0.646 OA
ATOM     36  H   IDS d 903     -33.227  80.087  19.941  0.00  0.00     0.091 H 
ATOM     37  H   IDS d 903     -33.839  82.385  21.490  0.00  0.00     0.210 HD
ATOM     38  H   IDS d 903     -30.491  79.774  19.760  0.00  0.00     0.133 H 
ATOM     39  H   IDS d 903     -33.630  82.978  19.363  0.00  0.00     0.092 H 
ATOM     40  H   IDS d 903     -31.485  82.341  20.937  0.00  0.00     0.097 H 
ATOM     41  H   IDS d 903     -31.439  83.050  18.610  0.00  0.00     0.104 H 
ATOM     42  O6  SGN d 902     -37.936  84.704  18.883  0.00  0.00    -0.254 OA
ATOM     43  C1  SGN d 902     -35.596  81.418  18.613  0.00  0.00     0.150 C 
ATOM     44  C5  SGN d 902     -36.155  83.600  17.725  0.00  0.00     0.091 C 
ATOM     45  N   SGN d 902     -35.961  79.427  17.269  0.00  0.00    -0.210 NA
ATOM     46  S1  SGN d 902     -36.255  78.079  18.377  0.00  0.00     0.156 S 
ATOM     47  C4  SGN d 902     -37.066  82.965  16.672  0.00  0.00     0.095 C 
ATOM     48  O5S SGN d 902     -38.947  86.710  20.277  0.00  0.00    -0.572 OA
ATOM     49  C2  SGN d 902     -36.491  80.738  17.581  0.00  0.00     0.081 C 
ATOM     50  S2  SGN d 902     -39.149  85.978  19.011  0.00  0.00     0.251 S 
ATOM     51  O3S SGN d 902     -35.965  78.504  19.759  0.00  0.00    -0.296 OA
ATOM     52  C6  SGN d 902     -36.723  84.940  18.171  0.00  0.00     0.067 C 
ATOM     53  O3  SGN d 902     -37.383  80.974  15.364  0.00  0.00    -0.391 OA
ATOM     54  O2S SGN d 902     -37.667  77.665  18.279  0.00  0.00    -0.296 OA
ATOM     55  O6S SGN d 902     -39.008  86.904  17.871  0.00  0.00    -0.572 OA
ATOM     56  C3  SGN d 902     -36.539  81.583  16.314  0.00  0.00     0.083 C 
ATOM     57  O5  SGN d 902     -36.092  82.738  18.872  0.00  0.00    -0.349 OA
ATOM     58  O1S SGN d 902     -35.382  76.948  18.014  0.00  0.00    -0.296 OA
ATOM     59  O4S SGN d 902     -40.497  85.377  18.994  0.00  0.00    -0.572 OA
ATOM     60  O4  SGN d 902     -37.082  83.777  15.497  0.00  0.00    -0.348 OA
ATOM     61  O1  SGN d 902     -34.249  81.431  18.134  0.00  0.00    -0.348 OA
ATOM     62  H   SGN d 902     -35.605  80.880  19.538  0.00  0.00     0.131 H 
ATOM     63  H   SGN d 902     -35.183  83.740  17.300  0.00  0.00     0.090 H 
ATOM     64  H   SGN d 902     -34.949  79.528  17.187  0.00  0.00     0.140 HD
ATOM     65  H   SGN d 902     -38.058  82.886  17.067  0.00  0.00     0.091 H 
ATOM     66  H   SGN d 902     -37.479  80.636  17.979  0.00  0.00     0.076 H 
ATOM     67  H   SGN d 902     -35.036  78.777  19.825  0.00  0.00     0.231 HD
ATOM     68  H   SGN d 902     -36.020  85.435  18.808  0.00  0.00     0.080 H 
ATOM     69  H   SGN d 902     -36.912  85.559  17.319  0.00  0.00     0.080 H 
ATOM     70  H   SGN d 902     -37.410  81.516  14.560  0.00  0.00     0.210 HD
ATOM     71  H   SGN d 902     -37.860  77.385  17.371  0.00  0.00     0.231 HD
ATOM     72  H   SGN d 902     -35.559  81.666  15.893  0.00  0.00     0.089 H 
ATOM     73  H   SGN d 902     -35.575  76.669  17.104  0.00  0.00     0.231 HD
ATOM     74  O4S SGN d 904     -28.953  76.112  19.616  0.00  0.00    -0.572 OA
ATOM     75  O5S SGN d 904     -28.095  76.347  21.857  0.00  0.00    -0.572 OA
ATOM     76  C3  SGN d 904     -27.801  82.057  18.134  0.00  0.00     0.083 C 
ATOM     77  N   SGN d 904     -25.931  82.517  16.677  0.00  0.00    -0.210 NA
ATOM     78  O5  SGN d 904     -26.097  80.302  19.584  0.00  0.00    -0.350 OA
ATOM     79  O6S SGN d 904     -30.110  77.499  21.220  0.00  0.00    -0.572 OA
ATOM     80  O3S SGN d 904     -25.029  80.601  15.122  0.00  0.00    -0.296 OA
ATOM     81  O4  SGN d 904     -29.501  81.595  19.733  0.00  0.00    -0.348 OA
ATOM     82  S2  SGN d 904     -28.789  77.035  20.756  0.00  0.00     0.251 S 
ATOM     83  O1  SGN d 904     -25.216  82.477  19.376  0.00  0.00    -0.369 OA
ATOM     84  O3  SGN d 904     -28.709  82.261  17.074  0.00  0.00    -0.391 OA
ATOM     85  O2S SGN d 904     -24.678  82.873  14.376  0.00  0.00    -0.296 OA
ATOM     86  C5  SGN d 904     -27.319  80.734  20.191  0.00  0.00     0.091 C 
ATOM     87  O6  SGN d 904     -27.834  78.423  20.252  0.00  0.00    -0.254 OA
ATOM     88  O1S SGN d 904     -23.385  81.984  16.215  0.00  0.00    -0.296 OA
ATOM     89  C1  SGN d 904     -25.511  81.255  18.693  0.00  0.00     0.147 C 
ATOM     90  C4  SGN d 904     -28.355  81.027  19.106  0.00  0.00     0.095 C 
ATOM     91  C2  SGN d 904     -26.496  81.533  17.566  0.00  0.00     0.081 C 
ATOM     92  C6  SGN d 904     -27.811  79.596  21.063  0.00  0.00     0.067 C 
ATOM     93  S1  SGN d 904     -24.698  81.973  15.546  0.00  0.00     0.156 S 
ATOM     94  H   SGN d 904     -27.645  82.984  18.646  0.00  0.00     0.089 H 
ATOM     95  H   SGN d 904     -25.516  83.248  17.255  0.00  0.00     0.140 HD
ATOM     96  H   SGN d 904     -25.893  80.599  14.683  0.00  0.00     0.231 HD
ATOM     97  H   SGN d 904     -24.588  82.303  20.094  0.00  0.00     0.212 HD
ATOM     98  H   SGN d 904     -28.853  81.424  16.607  0.00  0.00     0.210 HD
ATOM     99  H   SGN d 904     -25.546  82.859  13.942  0.00  0.00     0.231 HD
ATOM    100  H   SGN d 904     -27.166  81.622  20.768  0.00  0.00     0.090 H 
ATOM    101  H   SGN d 904     -23.407  81.391  16.982  0.00  0.00     0.231 HD
ATOM    102  H   SGN d 904     -24.596  80.858  18.305  0.00  0.00     0.131 H 
ATOM    103  H   SGN d 904     -28.596  80.125  18.584  0.00  0.00     0.091 H 
ATOM    104  H   SGN d 904     -26.688  80.625  17.032  0.00  0.00     0.076 H 
ATOM    105  H   SGN d 904     -28.795  79.810  21.425  0.00  0.00     0.080 H 
ATOM    106  H   SGN d 904     -27.170  79.461  21.909  0.00  0.00     0.080 H 
ENDROOT
TORSDOF 33
ENDMDL
MODEL 59
REMARK VINA RESULT:      -6.5      4.820     10.729
REMARK  0 active torsions:
REMARK  status: ('A' for Active; 'I' for Inactive)
REMARK       I    between atoms: C3_1  and  O3_18 
REMARK       I    between atoms: O6_3  and  C6_41 
REMARK       I    between atoms: O6_3  and  S2_27 
REMARK       I    between atoms: C1_4  and  O1_67 
REMARK       I    between atoms: O2_6  and  C2_60 
REMARK       I    between atoms: O2_6  and  S_64 
REMARK       I    between atoms: C5_7  and  C6_41 
REMARK       I    between atoms: C6_9  and  C5_36 
REMARK       I    between atoms: N_10  and  C2_26 
REMARK       I    between atoms: N_10  and  S1_14 
REMARK       I    between atoms: O2_12  and  C2_39 
REMARK       I    between atoms: O2_12  and  S_34 
REMARK       I    between atoms: C3_13  and  O3_44 
REMARK       I    between atoms: S1_14  and  O1S_57 
REMARK       I    between atoms: S1_14  and  O2S_48 
REMARK       I    between atoms: S1_14  and  O3S_38 
REMARK       I    between atoms: C6_16  and  C5_68 
REMARK       I    between atoms: C4_17  and  O4_62 
REMARK       I    between atoms: N_21  and  C2_65 
REMARK       I    between atoms: N_21  and  S1_69 
REMARK       I    between atoms: C3_25  and  O3_30 
REMARK       I    between atoms: O3S_29  and  S1_69 
REMARK       I    between atoms: O4_31  and  C1_42 
REMARK       I    between atoms: O4_31  and  C4_63 
REMARK       I    between atoms: S2_35  and  O6_49 
REMARK       I    between atoms: O1_37  and  C1_61 
REMARK       I    between atoms: O2S_45  and  S1_69 
REMARK       I    between atoms: O3_46  and  C3_55 
REMARK       I    between atoms: C5_47  and  C6_66 
REMARK       I    between atoms: O6_49  and  C6_66 
REMARK       I    between atoms: O1S_52  and  S1_69 
REMARK       I    between atoms: C1_54  and  O4_62 
REMARK       I    between atoms: C4_59  and  O1_67 
ROOT
ATOM      1  C3  UAP d 901     -23.418  87.218  16.350  0.00  0.00     0.086 C 
ATOM      2  O1S UAP d 901     -20.321  85.380  13.403  0.00  0.00    -0.572 OA
ATOM      3  C6  UAP d 901     -22.875  87.125  19.972  0.00  0.00     0.233 C 
ATOM      4  O2  UAP d 901     -21.925  85.520  15.512  0.00  0.00    -0.244 OA
ATOM      5  O3  UAP d 901     -24.657  87.644  15.824  0.00  0.00    -0.389 OA
ATOM      6  O61 UAP d 901     -23.169  88.312  20.242  0.00  0.00    -0.642 OA
ATOM      7  O5  UAP d 901     -22.623  85.441  18.407  0.00  0.00    -0.311 OA
ATOM      8  O2S UAP d 901     -22.275  86.772  13.199  0.00  0.00    -0.572 OA
ATOM      9  S   UAP d 901     -21.747  85.512  13.753  0.00  0.00     0.252 S 
ATOM     10  C5  UAP d 901     -22.946  86.707  18.708  0.00  0.00     0.147 C 
ATOM     11  C2  UAP d 901     -23.213  85.726  16.086  0.00  0.00     0.135 C 
ATOM     12  O62 UAP d 901     -22.509  86.325  20.860  0.00  0.00    -0.642 OA
ATOM     13  O3S UAP d 901     -22.500  84.375  13.192  0.00  0.00    -0.572 OA
ATOM     14  C4  UAP d 901     -23.330  87.572  17.752  0.00  0.00    -0.034 C 
ATOM     15  C1  UAP d 901     -23.364  84.866  17.333  0.00  0.00     0.167 C 
ATOM     16  H   UAP d 901     -22.616  87.723  15.854  0.00  0.00     0.093 H 
ATOM     17  H   UAP d 901     -25.378  87.181  16.280  0.00  0.00     0.210 HD
ATOM     18  H   UAP d 901     -23.983  85.421  15.409  0.00  0.00     0.097 H 
ATOM     19  H   UAP d 901     -23.573  88.535  18.031  0.00  0.00     0.085 H 
ATOM     20  H   UAP d 901     -22.974  83.886  17.150  0.00  0.00     0.134 H 
ATOM     21  O1S IDS d 903     -31.983  76.026  20.077  0.00  0.00    -0.572 OA
ATOM     22  O2  IDS d 903     -30.952  78.450  19.820  0.00  0.00    -0.244 OA
ATOM     23  O5  IDS d 903     -31.084  81.814  18.586  0.00  0.00    -0.340 OA
ATOM     24  C6  IDS d 903     -29.629  83.217  17.354  0.00  0.00     0.206 C 
ATOM     25  O2S IDS d 903     -31.236  76.671  17.875  0.00  0.00    -0.572 OA
ATOM     26  C3  IDS d 903     -29.299  80.133  19.531  0.00  0.00     0.094 C 
ATOM     27  O3S IDS d 903     -29.625  76.177  19.601  0.00  0.00    -0.572 OA
ATOM     28  O3  IDS d 903     -28.290  79.171  19.749  0.00  0.00    -0.390 OA
ATOM     29  O61 IDS d 903     -28.743  83.416  16.502  0.00  0.00    -0.646 OA
ATOM     30  C1  IDS d 903     -31.629  80.502  18.800  0.00  0.00     0.161 C 
ATOM     31  C4  IDS d 903     -28.789  81.187  18.539  0.00  0.00     0.103 C 
ATOM     32  C2  IDS d 903     -30.508  79.461  18.923  0.00  0.00     0.134 C 
ATOM     33  S   IDS d 903     -30.953  76.760  19.319  0.00  0.00     0.252 S 
ATOM     34  C5  IDS d 903     -29.950  81.784  17.733  0.00  0.00     0.152 C 
ATOM     35  O62 IDS d 903     -30.271  84.141  17.903  0.00  0.00    -0.646 OA
ATOM     36  H   IDS d 903     -29.556  80.591  20.463  0.00  0.00     0.091 H 
ATOM     37  H   IDS d 903     -28.055  78.754  18.906  0.00  0.00     0.210 HD
ATOM     38  H   IDS d 903     -32.208  80.525  19.700  0.00  0.00     0.133 H 
ATOM     39  H   IDS d 903     -28.098  80.715  17.872  0.00  0.00     0.092 H 
ATOM     40  H   IDS d 903     -30.264  79.048  17.967  0.00  0.00     0.097 H 
ATOM     41  H   IDS d 903     -30.120  81.204  16.849  0.00  0.00     0.104 H 
ATOM     42  O6  SGN d 902     -23.480  81.363  17.801  0.00  0.00    -0.254 OA
ATOM     43  C1  SGN d 902     -26.909  81.925  19.867  0.00  0.00     0.150 C 
ATOM     44  C5  SGN d 902     -25.589  82.490  17.918  0.00  0.00     0.091 C 
ATOM     45  N   SGN d 902     -27.384  83.617  21.547  0.00  0.00    -0.210 NA
ATOM     46  S1  SGN d 902     -27.589  82.789  23.097  0.00  0.00     0.156 S 
ATOM     47  C4  SGN d 902     -25.029  83.727  18.624  0.00  0.00     0.095 C 
ATOM     48  O5S SGN d 902     -21.727  79.770  16.627  0.00  0.00    -0.572 OA
ATOM     49  C2  SGN d 902     -26.381  83.148  20.613  0.00  0.00     0.081 C 
ATOM     50  S2  SGN d 902     -21.867  81.155  17.117  0.00  0.00     0.251 S 
ATOM     51  O3S SGN d 902     -27.644  81.333  22.876  0.00  0.00    -0.296 OA
ATOM     52  C6  SGN d 902     -24.535  81.890  16.999  0.00  0.00     0.067 C 
ATOM     53  O3  SGN d 902     -25.548  85.378  20.293  0.00  0.00    -0.391 OA
ATOM     54  O2S SGN d 902     -26.448  83.108  23.976  0.00  0.00    -0.296 OA
ATOM     55  O6S SGN d 902     -21.683  82.101  16.000  0.00  0.00    -0.572 OA
ATOM     56  C3  SGN d 902     -26.059  84.253  19.615  0.00  0.00     0.083 C 
ATOM     57  O5  SGN d 902     -25.935  81.504  18.903  0.00  0.00    -0.349 OA
ATOM     58  O1S SGN d 902     -28.841  83.240  23.731  0.00  0.00    -0.296 OA
ATOM     59  O4S SGN d 902     -20.854  81.418  18.158  0.00  0.00    -0.572 OA
ATOM     60  O4  SGN d 902     -24.747  84.744  17.662  0.00  0.00    -0.348 OA
ATOM     61  O1  SGN d 902     -28.164  82.247  19.264  0.00  0.00    -0.348 OA
ATOM     62  H   SGN d 902     -27.073  81.111  20.542  0.00  0.00     0.131 H 
ATOM     63  H   SGN d 902     -26.448  82.777  17.348  0.00  0.00     0.090 H 
ATOM     64  H   SGN d 902     -28.282  83.570  21.065  0.00  0.00     0.140 HD
ATOM     65  H   SGN d 902     -24.130  83.461  19.140  0.00  0.00     0.091 H 
ATOM     66  H   SGN d 902     -25.493  82.882  21.150  0.00  0.00     0.076 H 
ATOM     67  H   SGN d 902     -28.394  81.121  22.298  0.00  0.00     0.231 HD
ATOM     68  H   SGN d 902     -24.970  81.105  16.414  0.00  0.00     0.080 H 
ATOM     69  H   SGN d 902     -24.153  82.641  16.339  0.00  0.00     0.080 H 
ATOM     70  H   SGN d 902     -25.345  86.077  19.652  0.00  0.00     0.210 HD
ATOM     71  H   SGN d 902     -26.410  84.066  24.123  0.00  0.00     0.231 HD
ATOM     72  H   SGN d 902     -26.946  84.545  19.094  0.00  0.00     0.089 H 
ATOM     73  H   SGN d 902     -28.803  84.199  23.876  0.00  0.00     0.231 HD
ATOM     74  O4S SGN d 904     -35.037  81.114  22.430  0.00  0.00    -0.572 OA
ATOM     75  O5S SGN d 904     -35.657  78.786  22.340  0.00  0.00    -0.572 OA
ATOM     76  C3  SGN d 904     -33.875  81.443  16.313  0.00  0.00     0.083 C 
ATOM     77  N   SGN d 904     -35.477  82.589  14.918  0.00  0.00    -0.210 NA
ATOM     78  O5  SGN d 904     -36.068  80.131  17.563  0.00  0.00    -0.350 OA
ATOM     79  O6S SGN d 904     -33.379  79.435  21.913  0.00  0.00    -0.572 OA
ATOM     80  O3S SGN d 904     -37.101  84.337  16.019  0.00  0.00    -0.296 OA
ATOM     81  O4  SGN d 904     -32.425  80.138  17.675  0.00  0.00    -0.348 OA
ATOM     82  S2  SGN d 904     -34.793  79.824  21.755  0.00  0.00     0.251 S 
ATOM     83  O1  SGN d 904     -36.054  79.875  15.220  0.00  0.00    -0.369 OA
ATOM     84  O3  SGN d 904     -32.998  82.545  16.255  0.00  0.00    -0.391 OA
ATOM     85  O2S SGN d 904     -36.581  84.649  13.680  0.00  0.00    -0.296 OA
ATOM     86  C5  SGN d 904     -34.752  79.596  17.741  0.00  0.00     0.091 C 
ATOM     87  O6  SGN d 904     -35.161  79.981  20.042  0.00  0.00    -0.254 OA
ATOM     88  O1S SGN d 904     -38.049  82.856  14.370  0.00  0.00    -0.296 OA
ATOM     89  C1  SGN d 904     -36.275  80.781  16.305  0.00  0.00     0.147 C 
ATOM     90  C4  SGN d 904     -33.724  80.723  17.644  0.00  0.00     0.095 C 
ATOM     91  C2  SGN d 904     -35.301  81.946  16.196  0.00  0.00     0.081 C 
ATOM     92  C6  SGN d 904     -34.703  78.987  19.128  0.00  0.00     0.067 C 
ATOM     93  S1  SGN d 904     -36.865  83.655  14.734  0.00  0.00     0.156 S 
ATOM     94  H   SGN d 904     -33.645  80.768  15.514  0.00  0.00     0.089 H 
ATOM     95  H   SGN d 904     -35.559  81.856  14.214  0.00  0.00     0.140 HD
ATOM     96  H   SGN d 904     -36.320  84.862  16.254  0.00  0.00     0.231 HD
ATOM     97  H   SGN d 904     -36.675  79.132  15.288  0.00  0.00     0.212 HD
ATOM     98  H   SGN d 904     -33.203  83.159  16.977  0.00  0.00     0.210 HD
ATOM     99  H   SGN d 904     -35.801  85.170  13.928  0.00  0.00     0.231 HD
ATOM    100  H   SGN d 904     -34.532  78.866  16.991  0.00  0.00     0.090 H 
ATOM    101  H   SGN d 904     -38.227  82.207  15.068  0.00  0.00     0.231 HD
ATOM    102  H   SGN d 904     -37.286  81.128  16.252  0.00  0.00     0.131 H 
ATOM    103  H   SGN d 904     -33.866  81.412  18.450  0.00  0.00     0.091 H 
ATOM    104  H   SGN d 904     -35.492  82.641  16.985  0.00  0.00     0.076 H 
ATOM    105  H   SGN d 904     -33.699  78.703  19.368  0.00  0.00     0.080 H 
ATOM    106  H   SGN d 904     -35.315  78.112  19.180  0.00  0.00     0.080 H 
ENDROOT
TORSDOF 33
ENDMDL
MODEL 60
REMARK VINA RESULT:      -6.5      4.618      9.542
REMARK  0 active torsions:
REMARK  status: ('A' for Active; 'I' for Inactive)
REMARK       I    between atoms: C3_1  and  O3_18 
REMARK       I    between atoms: O6_3  and  C6_41 
REMARK       I    between atoms: O6_3  and  S2_27 
REMARK       I    between atoms: C1_4  and  O1_67 
REMARK       I    between atoms: O2_6  and  C2_60 
REMARK       I    between atoms: O2_6  and  S_64 
REMARK       I    between atoms: C5_7  and  C6_41 
REMARK       I    between atoms: C6_9  and  C5_36 
REMARK       I    between atoms: N_10  and  C2_26 
REMARK       I    between atoms: N_10  and  S1_14 
REMARK       I    between atoms: O2_12  and  C2_39 
REMARK       I    between atoms: O2_12  and  S_34 
REMARK       I    between atoms: C3_13  and  O3_44 
REMARK       I    between atoms: S1_14  and  O1S_57 
REMARK       I    between atoms: S1_14  and  O2S_48 
REMARK       I    between atoms: S1_14  and  O3S_38 
REMARK       I    between atoms: C6_16  and  C5_68 
REMARK       I    between atoms: C4_17  and  O4_62 
REMARK       I    between atoms: N_21  and  C2_65 
REMARK       I    between atoms: N_21  and  S1_69 
REMARK       I    between atoms: C3_25  and  O3_30 
REMARK       I    between atoms: O3S_29  and  S1_69 
REMARK       I    between atoms: O4_31  and  C1_42 
REMARK       I    between atoms: O4_31  and  C4_63 
REMARK       I    between atoms: S2_35  and  O6_49 
REMARK       I    between atoms: O1_37  and  C1_61 
REMARK       I    between atoms: O2S_45  and  S1_69 
REMARK       I    between atoms: O3_46  and  C3_55 
REMARK       I    between atoms: C5_47  and  C6_66 
REMARK       I    between atoms: O6_49  and  C6_66 
REMARK       I    between atoms: O1S_52  and  S1_69 
REMARK       I    between atoms: C1_54  and  O4_62 
REMARK       I    between atoms: C4_59  and  O1_67 
ROOT
ATOM      1  C3  UAP d 901     -23.393  83.507  20.739  0.00  0.00     0.086 C 
ATOM      2  O1S UAP d 901     -19.958  80.905  18.982  0.00  0.00    -0.572 OA
ATOM      3  C6  UAP d 901     -24.443  83.152  24.232  0.00  0.00     0.233 C 
ATOM      4  O2  UAP d 901     -22.191  81.462  20.301  0.00  0.00    -0.244 OA
ATOM      5  O3  UAP d 901     -24.143  84.301  19.845  0.00  0.00    -0.389 OA
ATOM      6  O61 UAP d 901     -24.498  84.364  24.541  0.00  0.00    -0.642 OA
ATOM      7  O5  UAP d 901     -24.019  81.515  22.654  0.00  0.00    -0.311 OA
ATOM      8  O2S UAP d 901     -21.211  82.826  18.248  0.00  0.00    -0.572 OA
ATOM      9  S   UAP d 901     -21.311  81.450  18.769  0.00  0.00     0.252 S 
ATOM     10  C5  UAP d 901     -24.091  82.811  22.992  0.00  0.00     0.147 C 
ATOM     11  C2  UAP d 901     -23.497  82.030  20.356  0.00  0.00     0.135 C 
ATOM     12  O62 UAP d 901     -24.702  82.254  25.062  0.00  0.00    -0.642 OA
ATOM     13  O3S UAP d 901     -22.034  80.609  17.796  0.00  0.00    -0.572 OA
ATOM     14  C4  UAP d 901     -23.803  83.777  22.102  0.00  0.00    -0.034 C 
ATOM     15  C1  UAP d 901     -24.371  81.220  21.304  0.00  0.00     0.167 C 
ATOM     16  H   UAP d 901     -22.356  83.761  20.673  0.00  0.00     0.093 H 
ATOM     17  H   UAP d 901     -25.081  84.064  19.912  0.00  0.00     0.210 HD
ATOM     18  H   UAP d 901     -23.969  81.990  19.397  0.00  0.00     0.097 H 
ATOM     19  H   UAP d 901     -23.876  84.761  22.406  0.00  0.00     0.085 H 
ATOM     20  H   UAP d 901     -24.214  80.175  21.142  0.00  0.00     0.134 H 
ATOM     21  O1S IDS d 903     -35.345  75.314  19.147  0.00  0.00    -0.572 OA
ATOM     22  O2  IDS d 903     -33.702  77.320  19.674  0.00  0.00    -0.244 OA
ATOM     23  O5  IDS d 903     -32.421  80.601  19.002  0.00  0.00    -0.340 OA
ATOM     24  C6  IDS d 903     -30.274  81.535  18.653  0.00  0.00     0.206 C 
ATOM     25  O2S IDS d 903     -33.613  75.765  17.529  0.00  0.00    -0.572 OA
ATOM     26  C3  IDS d 903     -31.699  78.435  20.302  0.00  0.00     0.094 C 
ATOM     27  O3S IDS d 903     -33.053  74.761  19.649  0.00  0.00    -0.572 OA
ATOM     28  O3  IDS d 903     -31.163  77.208  20.747  0.00  0.00    -0.390 OA
ATOM     29  O61 IDS d 903     -29.098  81.483  18.251  0.00  0.00    -0.646 OA
ATOM     30  C1  IDS d 903     -33.330  79.510  18.790  0.00  0.00     0.161 C 
ATOM     31  C4  IDS d 903     -30.567  79.314  19.754  0.00  0.00     0.103 C 
ATOM     32  C2  IDS d 903     -32.678  78.176  19.181  0.00  0.00     0.134 C 
ATOM     33  S   IDS d 903     -33.941  75.725  18.965  0.00  0.00     0.252 S 
ATOM     34  C5  IDS d 903     -31.088  80.255  18.660  0.00  0.00     0.152 C 
ATOM     35  O62 IDS d 903     -30.818  82.594  19.042  0.00  0.00    -0.646 OA
ATOM     36  H   IDS d 903     -32.188  78.923  21.118  0.00  0.00     0.091 H 
ATOM     37  H   IDS d 903     -30.719  76.763  20.008  0.00  0.00     0.210 HD
ATOM     38  H   IDS d 903     -34.202  79.680  19.388  0.00  0.00     0.133 H 
ATOM     39  H   IDS d 903     -29.813  78.675  19.344  0.00  0.00     0.092 H 
ATOM     40  H   IDS d 903     -32.179  77.736  18.344  0.00  0.00     0.097 H 
ATOM     41  H   IDS d 903     -31.023  79.779  17.704  0.00  0.00     0.104 H 
ATOM     42  O6  SGN d 902     -25.588  77.903  21.163  0.00  0.00    -0.254 OA
ATOM     43  C1  SGN d 902     -29.284  79.414  21.800  0.00  0.00     0.150 C 
ATOM     44  C5  SGN d 902     -27.178  79.610  20.621  0.00  0.00     0.091 C 
ATOM     45  N   SGN d 902     -29.947  81.122  23.397  0.00  0.00    -0.210 NA
ATOM     46  S1  SGN d 902     -30.985  80.351  24.605  0.00  0.00     0.156 S 
ATOM     47  C4  SGN d 902     -26.657  80.600  21.665  0.00  0.00     0.095 C 
ATOM     48  O5S SGN d 902     -23.994  75.890  20.535  0.00  0.00    -0.572 OA
ATOM     49  C2  SGN d 902     -28.810  80.399  22.866  0.00  0.00     0.081 C 
ATOM     50  S2  SGN d 902     -23.954  77.238  21.133  0.00  0.00     0.251 S 
ATOM     51  O3S SGN d 902     -31.325  78.986  24.165  0.00  0.00    -0.296 OA
ATOM     52  C6  SGN d 902     -26.037  78.746  20.103  0.00  0.00     0.067 C 
ATOM     53  O3  SGN d 902     -27.365  82.282  23.229  0.00  0.00    -0.391 OA
ATOM     54  O2S SGN d 902     -30.270  80.286  25.893  0.00  0.00    -0.296 OA
ATOM     55  O6S SGN d 902     -23.083  78.116  20.329  0.00  0.00    -0.572 OA
ATOM     56  C3  SGN d 902     -27.826  81.383  22.246  0.00  0.00     0.083 C 
ATOM     57  O5  SGN d 902     -28.147  78.746  21.236  0.00  0.00    -0.349 OA
ATOM     58  O1S SGN d 902     -32.220  81.141  24.764  0.00  0.00    -0.296 OA
ATOM     59  O4S SGN d 902     -23.433  77.155  22.511  0.00  0.00    -0.572 OA
ATOM     60  O4  SGN d 902     -25.745  81.511  21.050  0.00  0.00    -0.348 OA
ATOM     61  O1  SGN d 902     -30.043  80.116  20.813  0.00  0.00    -0.348 OA
ATOM     62  H   SGN d 902     -29.920  78.668  22.228  0.00  0.00     0.131 H 
ATOM     63  H   SGN d 902     -27.615  80.158  19.813  0.00  0.00     0.090 H 
ATOM     64  H   SGN d 902     -30.543  81.362  22.604  0.00  0.00     0.140 HD
ATOM     65  H   SGN d 902     -26.157  80.061  22.442  0.00  0.00     0.091 H 
ATOM     66  H   SGN d 902     -28.328  79.864  23.657  0.00  0.00     0.076 H 
ATOM     67  H   SGN d 902     -31.795  79.026  23.317  0.00  0.00     0.231 HD
ATOM     68  H   SGN d 902     -26.381  78.146  19.286  0.00  0.00     0.080 H 
ATOM     69  H   SGN d 902     -25.234  79.366  19.762  0.00  0.00     0.080 H 
ATOM     70  H   SGN d 902     -26.739  82.906  22.828  0.00  0.00     0.210 HD
ATOM     71  H   SGN d 902     -30.046  81.184  26.185  0.00  0.00     0.231 HD
ATOM     72  H   SGN d 902     -28.307  81.944  21.473  0.00  0.00     0.089 H 
ATOM     73  H   SGN d 902     -31.995  82.039  25.054  0.00  0.00     0.231 HD
ATOM     74  O4S SGN d 904     -37.641  81.016  20.866  0.00  0.00    -0.572 OA
ATOM     75  O5S SGN d 904     -38.757  78.987  20.197  0.00  0.00    -0.572 OA
ATOM     76  C3  SGN d 904     -34.011  81.153  15.798  0.00  0.00     0.083 C 
ATOM     77  N   SGN d 904     -34.529  82.768  14.080  0.00  0.00    -0.210 NA
ATOM     78  O5  SGN d 904     -36.785  80.528  15.892  0.00  0.00    -0.350 OA
ATOM     79  O6S SGN d 904     -36.424  78.931  20.786  0.00  0.00    -0.572 OA
ATOM     80  O3S SGN d 904     -35.939  84.892  14.715  0.00  0.00    -0.296 OA
ATOM     81  O4  SGN d 904     -33.655  79.433  17.404  0.00  0.00    -0.348 OA
ATOM     82  S2  SGN d 904     -37.489  79.733  20.154  0.00  0.00     0.251 S 
ATOM     83  O1  SGN d 904     -35.871  80.346  13.727  0.00  0.00    -0.369 OA
ATOM     84  O3  SGN d 904     -32.933  81.940  16.250  0.00  0.00    -0.391 OA
ATOM     85  O2S SGN d 904     -34.436  85.098  12.833  0.00  0.00    -0.296 OA
ATOM     86  C5  SGN d 904     -35.852  79.617  16.483  0.00  0.00     0.091 C 
ATOM     87  O6  SGN d 904     -37.059  80.042  18.476  0.00  0.00    -0.254 OA
ATOM     88  O1S SGN d 904     -36.473  83.812  12.627  0.00  0.00    -0.296 OA
ATOM     89  C1  SGN d 904     -36.274  81.245  14.764  0.00  0.00     0.147 C 
ATOM     90  C4  SGN d 904     -34.619  80.384  16.961  0.00  0.00     0.095 C 
ATOM     91  C2  SGN d 904     -35.073  82.065  15.215  0.00  0.00     0.081 C 
ATOM     92  C6  SGN d 904     -36.543  78.982  17.673  0.00  0.00     0.067 C 
ATOM     93  S1  SGN d 904     -35.382  84.207  13.535  0.00  0.00     0.156 S 
ATOM     94  H   SGN d 904     -33.658  80.463  15.060  0.00  0.00     0.089 H 
ATOM     95  H   SGN d 904     -34.502  82.113  13.298  0.00  0.00     0.140 HD
ATOM     96  H   SGN d 904     -35.218  85.150  15.309  0.00  0.00     0.231 HD
ATOM     97  H   SGN d 904     -36.635  79.823  13.438  0.00  0.00     0.212 HD
ATOM     98  H   SGN d 904     -33.248  82.567  16.918  0.00  0.00     0.210 HD
ATOM     99  H   SGN d 904     -33.722  85.353  13.439  0.00  0.00     0.231 HD
ATOM    100  H   SGN d 904     -35.543  78.875  15.777  0.00  0.00     0.090 H 
ATOM    101  H   SGN d 904     -37.088  83.227  13.096  0.00  0.00     0.231 HD
ATOM    102  H   SGN d 904     -37.042  81.882  14.376  0.00  0.00     0.131 H 
ATOM    103  H   SGN d 904     -34.895  81.061  17.742  0.00  0.00     0.091 H 
ATOM    104  H   SGN d 904     -35.383  82.763  15.964  0.00  0.00     0.076 H 
ATOM    105  H   SGN d 904     -35.843  78.402  18.238  0.00  0.00     0.080 H 
ATOM    106  H   SGN d 904     -37.329  78.330  17.353  0.00  0.00     0.080 H 
ENDROOT
TORSDOF 33
ENDMDL
MODEL 61
REMARK VINA RESULT:      -6.5      5.356     13.254
REMARK  0 active torsions:
REMARK  status: ('A' for Active; 'I' for Inactive)
REMARK       I    between atoms: C3_1  and  O3_18 
REMARK       I    between atoms: O6_3  and  C6_41 
REMARK       I    between atoms: O6_3  and  S2_27 
REMARK       I    between atoms: C1_4  and  O1_67 
REMARK       I    between atoms: O2_6  and  C2_60 
REMARK       I    between atoms: O2_6  and  S_64 
REMARK       I    between atoms: C5_7  and  C6_41 
REMARK       I    between atoms: C6_9  and  C5_36 
REMARK       I    between atoms: N_10  and  C2_26 
REMARK       I    between atoms: N_10  and  S1_14 
REMARK       I    between atoms: O2_12  and  C2_39 
REMARK       I    between atoms: O2_12  and  S_34 
REMARK       I    between atoms: C3_13  and  O3_44 
REMARK       I    between atoms: S1_14  and  O1S_57 
REMARK       I    between atoms: S1_14  and  O2S_48 
REMARK       I    between atoms: S1_14  and  O3S_38 
REMARK       I    between atoms: C6_16  and  C5_68 
REMARK       I    between atoms: C4_17  and  O4_62 
REMARK       I    between atoms: N_21  and  C2_65 
REMARK       I    between atoms: N_21  and  S1_69 
REMARK       I    between atoms: C3_25  and  O3_30 
REMARK       I    between atoms: O3S_29  and  S1_69 
REMARK       I    between atoms: O4_31  and  C1_42 
REMARK       I    between atoms: O4_31  and  C4_63 
REMARK       I    between atoms: S2_35  and  O6_49 
REMARK       I    between atoms: O1_37  and  C1_61 
REMARK       I    between atoms: O2S_45  and  S1_69 
REMARK       I    between atoms: O3_46  and  C3_55 
REMARK       I    between atoms: C5_47  and  C6_66 
REMARK       I    between atoms: O6_49  and  C6_66 
REMARK       I    between atoms: O1S_52  and  S1_69 
REMARK       I    between atoms: C1_54  and  O4_62 
REMARK       I    between atoms: C4_59  and  O1_67 
ROOT
ATOM      1  C3  UAP d 901     -22.342  84.846  16.089  0.00  0.00     0.086 C 
ATOM      2  O1S UAP d 901     -22.139  88.990  18.197  0.00  0.00    -0.572 OA
ATOM      3  C6  UAP d 901     -24.804  84.175  13.460  0.00  0.00     0.233 C 
ATOM      4  O2  UAP d 901     -23.235  86.781  17.218  0.00  0.00    -0.244 OA
ATOM      5  O3  UAP d 901     -21.557  83.798  16.617  0.00  0.00    -0.389 OA
ATOM      6  O61 UAP d 901     -24.050  83.625  12.625  0.00  0.00    -0.642 OA
ATOM      7  O5  UAP d 901     -25.095  85.192  15.517  0.00  0.00    -0.311 OA
ATOM      8  O2S UAP d 901     -20.760  87.017  18.142  0.00  0.00    -0.572 OA
ATOM      9  S   UAP d 901     -22.124  87.526  18.373  0.00  0.00     0.252 S 
ATOM     10  C5  UAP d 901     -24.298  84.591  14.621  0.00  0.00     0.147 C 
ATOM     11  C2  UAP d 901     -23.322  85.361  17.144  0.00  0.00     0.135 C 
ATOM     12  O62 UAP d 901     -26.019  84.351  13.226  0.00  0.00    -0.642 OA
ATOM     13  O3S UAP d 901     -22.548  87.190  19.745  0.00  0.00    -0.572 OA
ATOM     14  C4  UAP d 901     -22.988  84.412  14.867  0.00  0.00    -0.034 C 
ATOM     15  C1  UAP d 901     -24.763  84.946  16.882  0.00  0.00     0.167 C 
ATOM     16  H   UAP d 901     -21.718  85.676  15.829  0.00  0.00     0.093 H 
ATOM     17  H   UAP d 901     -22.130  83.051  16.849  0.00  0.00     0.210 HD
ATOM     18  H   UAP d 901     -23.040  84.915  18.075  0.00  0.00     0.097 H 
ATOM     19  H   UAP d 901     -22.414  83.941  14.150  0.00  0.00     0.085 H 
ATOM     20  H   UAP d 901     -25.426  85.524  17.492  0.00  0.00     0.134 H 
ATOM     21  O1S IDS d 903     -32.375  77.420  23.618  0.00  0.00    -0.572 OA
ATOM     22  O2  IDS d 903     -30.476  78.080  21.898  0.00  0.00    -0.244 OA
ATOM     23  O5  IDS d 903     -27.119  77.831  20.664  0.00  0.00    -0.340 OA
ATOM     24  C6  IDS d 903     -25.405  79.368  20.114  0.00  0.00     0.206 C 
ATOM     25  O2S IDS d 903     -30.540  78.738  24.465  0.00  0.00    -0.572 OA
ATOM     26  C3  IDS d 903     -29.179  79.448  20.450  0.00  0.00     0.094 C 
ATOM     27  O3S IDS d 903     -32.188  79.748  23.022  0.00  0.00    -0.572 OA
ATOM     28  O3  IDS d 903     -30.148  80.468  20.555  0.00  0.00    -0.390 OA
ATOM     29  O61 IDS d 903     -24.792  80.441  20.263  0.00  0.00    -0.646 OA
ATOM     30  C1  IDS d 903     -28.196  77.460  21.539  0.00  0.00     0.161 C 
ATOM     31  C4  IDS d 903     -27.791  80.082  20.287  0.00  0.00     0.103 C 
ATOM     32  C2  IDS d 903     -29.175  78.629  21.719  0.00  0.00     0.134 C 
ATOM     33  S   IDS d 903     -31.432  78.512  23.314  0.00  0.00     0.252 S 
ATOM     34  C5  IDS d 903     -26.703  79.172  20.873  0.00  0.00     0.152 C 
ATOM     35  O62 IDS d 903     -24.996  78.443  19.375  0.00  0.00    -0.646 OA
ATOM     36  H   IDS d 903     -29.407  78.829  19.608  0.00  0.00     0.091 H 
ATOM     37  H   IDS d 903     -29.943  81.030  21.318  0.00  0.00     0.210 HD
ATOM     38  H   IDS d 903     -28.703  76.622  21.108  0.00  0.00     0.133 H 
ATOM     39  H   IDS d 903     -27.786  81.019  20.803  0.00  0.00     0.092 H 
ATOM     40  H   IDS d 903     -28.895  79.236  22.555  0.00  0.00     0.097 H 
ATOM     41  H   IDS d 903     -26.556  79.396  21.909  0.00  0.00     0.104 H 
ATOM     42  O6  SGN d 902     -27.707  85.239  18.819  0.00  0.00    -0.254 OA
ATOM     43  C1  SGN d 902     -28.275  81.278  18.243  0.00  0.00     0.150 C 
ATOM     44  C5  SGN d 902     -26.720  83.059  18.765  0.00  0.00     0.091 C 
ATOM     45  N   SGN d 902     -28.031  80.016  16.180  0.00  0.00    -0.210 NA
ATOM     46  S1  SGN d 902     -29.638  79.446  15.708  0.00  0.00     0.156 S 
ATOM     47  C4  SGN d 902     -26.295  83.152  17.299  0.00  0.00     0.095 C 
ATOM     48  O5S SGN d 902     -28.330  87.510  20.022  0.00  0.00    -0.572 OA
ATOM     49  C2  SGN d 902     -27.883  81.331  16.769  0.00  0.00     0.081 C 
ATOM     50  S2  SGN d 902     -27.583  86.999  18.855  0.00  0.00     0.251 S 
ATOM     51  O3S SGN d 902     -30.593  79.699  16.803  0.00  0.00    -0.296 OA
ATOM     52  C6  SGN d 902     -26.686  84.438  19.409  0.00  0.00     0.067 C 
ATOM     53  O3  SGN d 902     -26.070  81.858  15.285  0.00  0.00    -0.391 OA
ATOM     54  O2S SGN d 902     -30.077  80.169  14.500  0.00  0.00    -0.296 OA
ATOM     55  O6S SGN d 902     -26.164  87.387  18.962  0.00  0.00    -0.572 OA
ATOM     56  C3  SGN d 902     -26.434  81.784  16.644  0.00  0.00     0.083 C 
ATOM     57  O5  SGN d 902     -28.068  82.569  18.833  0.00  0.00    -0.349 OA
ATOM     58  O1S SGN d 902     -29.581  78.000  15.426  0.00  0.00    -0.296 OA
ATOM     59  O4S SGN d 902     -28.156  87.558  17.616  0.00  0.00    -0.572 OA
ATOM     60  O4  SGN d 902     -24.931  83.570  17.218  0.00  0.00    -0.348 OA
ATOM     61  O1  SGN d 902     -27.518  80.257  18.896  0.00  0.00    -0.348 OA
ATOM     62  H   SGN d 902     -29.311  81.033  18.352  0.00  0.00     0.131 H 
ATOM     63  H   SGN d 902     -26.049  82.401  19.278  0.00  0.00     0.090 H 
ATOM     64  H   SGN d 902     -27.666  79.345  16.858  0.00  0.00     0.140 HD
ATOM     65  H   SGN d 902     -26.918  83.861  16.796  0.00  0.00     0.091 H 
ATOM     66  H   SGN d 902     -28.518  82.023  16.256  0.00  0.00     0.076 H 
ATOM     67  H   SGN d 902     -30.306  79.224  17.599  0.00  0.00     0.231 HD
ATOM     68  H   SGN d 902     -26.860  84.349  20.462  0.00  0.00     0.080 H 
ATOM     69  H   SGN d 902     -25.729  84.891  19.254  0.00  0.00     0.080 H 
ATOM     70  H   SGN d 902     -25.147  82.147  15.213  0.00  0.00     0.210 HD
ATOM     71  H   SGN d 902     -29.450  80.004  13.778  0.00  0.00     0.231 HD
ATOM     72  H   SGN d 902     -25.788  81.083  17.130  0.00  0.00     0.089 H 
ATOM     73  H   SGN d 902     -28.952  77.836  14.705  0.00  0.00     0.231 HD
ATOM     74  O4S SGN d 904     -29.738  72.997  19.847  0.00  0.00    -0.572 OA
ATOM     75  O5S SGN d 904     -31.382  72.819  21.601  0.00  0.00    -0.572 OA
ATOM     76  C3  SGN d 904     -25.656  76.038  23.447  0.00  0.00     0.083 C 
ATOM     77  N   SGN d 904     -23.729  74.824  24.245  0.00  0.00    -0.210 NA
ATOM     78  O5  SGN d 904     -27.239  73.793  24.186  0.00  0.00    -0.350 OA
ATOM     79  O6S SGN d 904     -30.840  74.977  20.684  0.00  0.00    -0.572 OA
ATOM     80  O3S SGN d 904     -22.955  72.673  22.950  0.00  0.00    -0.296 OA
ATOM     81  O4  SGN d 904     -27.668  77.147  22.825  0.00  0.00    -0.348 OA
ATOM     82  S2  SGN d 904     -30.303  73.650  21.043  0.00  0.00     0.251 S 
ATOM     83  O1  SGN d 904     -25.923  74.617  25.959  0.00  0.00    -0.369 OA
ATOM     84  O3  SGN d 904     -24.871  76.700  22.481  0.00  0.00    -0.391 OA
ATOM     85  O2S SGN d 904     -21.260  73.877  24.183  0.00  0.00    -0.296 OA
ATOM     86  C5  SGN d 904     -27.889  75.045  23.940  0.00  0.00     0.091 C 
ATOM     87  O6  SGN d 904     -29.043  73.847  22.254  0.00  0.00    -0.254 OA
ATOM     88  O1S SGN d 904     -22.918  72.568  25.357  0.00  0.00    -0.296 OA
ATOM     89  C1  SGN d 904     -25.914  73.911  24.715  0.00  0.00     0.147 C 
ATOM     90  C4  SGN d 904     -27.075  75.855  22.932  0.00  0.00     0.095 C 
ATOM     91  C2  SGN d 904     -25.058  74.670  23.710  0.00  0.00     0.081 C 
ATOM     92  C6  SGN d 904     -29.251  74.731  23.353  0.00  0.00     0.067 C 
ATOM     93  S1  SGN d 904     -22.665  73.424  24.185  0.00  0.00     0.156 S 
ATOM     94  H   SGN d 904     -25.675  76.622  24.344  0.00  0.00     0.089 H 
ATOM     95  H   SGN d 904     -23.822  75.095  25.224  0.00  0.00     0.140 HD
ATOM     96  H   SGN d 904     -22.786  73.239  22.181  0.00  0.00     0.231 HD
ATOM     97  H   SGN d 904     -26.467  74.135  26.601  0.00  0.00     0.212 HD
ATOM     98  H   SGN d 904     -24.851  76.174  21.666  0.00  0.00     0.210 HD
ATOM     99  H   SGN d 904     -21.103  74.439  23.407  0.00  0.00     0.231 HD
ATOM    100  H   SGN d 904     -27.981  75.612  24.843  0.00  0.00     0.090 H 
ATOM    101  H   SGN d 904     -23.843  72.275  25.351  0.00  0.00     0.231 HD
ATOM    102  H   SGN d 904     -25.517  72.933  24.887  0.00  0.00     0.131 H 
ATOM    103  H   SGN d 904     -27.060  75.349  21.989  0.00  0.00     0.091 H 
ATOM    104  H   SGN d 904     -25.022  74.122  22.792  0.00  0.00     0.076 H 
ATOM    105  H   SGN d 904     -29.721  75.631  23.014  0.00  0.00     0.080 H 
ATOM    106  H   SGN d 904     -29.887  74.283  24.086  0.00  0.00     0.080 H 
ENDROOT
TORSDOF 33
ENDMDL
MODEL 62
REMARK VINA RESULT:      -6.5      4.411     11.244
REMARK  0 active torsions:
REMARK  status: ('A' for Active; 'I' for Inactive)
REMARK       I    between atoms: C3_1  and  O3_18 
REMARK       I    between atoms: O6_3  and  C6_41 
REMARK       I    between atoms: O6_3  and  S2_27 
REMARK       I    between atoms: C1_4  and  O1_67 
REMARK       I    between atoms: O2_6  and  C2_60 
REMARK       I    between atoms: O2_6  and  S_64 
REMARK       I    between atoms: C5_7  and  C6_41 
REMARK       I    between atoms: C6_9  and  C5_36 
REMARK       I    between atoms: N_10  and  C2_26 
REMARK       I    between atoms: N_10  and  S1_14 
REMARK       I    between atoms: O2_12  and  C2_39 
REMARK       I    between atoms: O2_12  and  S_34 
REMARK       I    between atoms: C3_13  and  O3_44 
REMARK       I    between atoms: S1_14  and  O1S_57 
REMARK       I    between atoms: S1_14  and  O2S_48 
REMARK       I    between atoms: S1_14  and  O3S_38 
REMARK       I    between atoms: C6_16  and  C5_68 
REMARK       I    between atoms: C4_17  and  O4_62 
REMARK       I    between atoms: N_21  and  C2_65 
REMARK       I    between atoms: N_21  and  S1_69 
REMARK       I    between atoms: C3_25  and  O3_30 
REMARK       I    between atoms: O3S_29  and  S1_69 
REMARK       I    between atoms: O4_31  and  C1_42 
REMARK       I    between atoms: O4_31  and  C4_63 
REMARK       I    between atoms: S2_35  and  O6_49 
REMARK       I    between atoms: O1_37  and  C1_61 
REMARK       I    between atoms: O2S_45  and  S1_69 
REMARK       I    between atoms: O3_46  and  C3_55 
REMARK       I    between atoms: C5_47  and  C6_66 
REMARK       I    between atoms: O6_49  and  C6_66 
REMARK       I    between atoms: O1S_52  and  S1_69 
REMARK       I    between atoms: C1_54  and  O4_62 
REMARK       I    between atoms: C4_59  and  O1_67 
ROOT
ATOM      1  C3  UAP d 901     -34.859  83.378  16.678  0.00  0.00     0.086 C 
ATOM      2  O1S UAP d 901     -36.429  86.924  19.252  0.00  0.00    -0.572 OA
ATOM      3  C6  UAP d 901     -36.495  80.101  16.768  0.00  0.00     0.233 C 
ATOM      4  O2  UAP d 901     -35.640  84.454  18.691  0.00  0.00    -0.244 OA
ATOM      5  O3  UAP d 901     -33.628  83.544  16.007  0.00  0.00    -0.389 OA
ATOM      6  O61 UAP d 901     -36.545  79.877  15.537  0.00  0.00    -0.642 OA
ATOM      7  O5  UAP d 901     -35.897  81.491  18.518  0.00  0.00    -0.311 OA
ATOM      8  O2S UAP d 901     -34.829  86.665  17.471  0.00  0.00    -0.572 OA
ATOM      9  S   UAP d 901     -35.244  86.173  18.797  0.00  0.00     0.252 S 
ATOM     10  C5  UAP d 901     -35.945  81.235  17.202  0.00  0.00     0.147 C 
ATOM     11  C2  UAP d 901     -34.669  83.540  18.187  0.00  0.00     0.135 C 
ATOM     12  O62 UAP d 901     -36.958  79.290  17.598  0.00  0.00    -0.642 OA
ATOM     13  O3S UAP d 901     -34.142  86.362  19.758  0.00  0.00    -0.572 OA
ATOM     14  C4  UAP d 901     -35.457  82.113  16.306  0.00  0.00    -0.034 C 
ATOM     15  C1  UAP d 901     -34.755  82.225  18.950  0.00  0.00     0.167 C 
ATOM     16  H   UAP d 901     -35.546  84.143  16.379  0.00  0.00     0.093 H 
ATOM     17  H   UAP d 901     -33.013  82.847  16.284  0.00  0.00     0.210 HD
ATOM     18  H   UAP d 901     -33.679  83.917  18.337  0.00  0.00     0.097 H 
ATOM     19  H   UAP d 901     -35.512  81.872  15.305  0.00  0.00     0.085 H 
ATOM     20  H   UAP d 901     -34.863  82.418  19.997  0.00  0.00     0.134 H 
ATOM     21  O1S IDS d 903     -25.878  76.119  25.574  0.00  0.00    -0.572 OA
ATOM     22  O2  IDS d 903     -27.234  76.920  23.448  0.00  0.00    -0.244 OA
ATOM     23  O5  IDS d 903     -27.389  78.390  20.181  0.00  0.00    -0.340 OA
ATOM     24  C6  IDS d 903     -28.625  80.140  19.175  0.00  0.00     0.206 C 
ATOM     25  O2S IDS d 903     -25.999  78.497  25.184  0.00  0.00    -0.572 OA
ATOM     26  C3  IDS d 903     -29.009  77.865  22.181  0.00  0.00     0.094 C 
ATOM     27  O3S IDS d 903     -27.943  77.300  25.963  0.00  0.00    -0.572 OA
ATOM     28  O3  IDS d 903     -29.823  77.867  23.334  0.00  0.00    -0.390 OA
ATOM     29  O61 IDS d 903     -29.215  81.236  19.205  0.00  0.00    -0.646 OA
ATOM     30  C1  IDS d 903     -26.690  77.889  21.332  0.00  0.00     0.161 C 
ATOM     31  C4  IDS d 903     -29.376  79.066  21.300  0.00  0.00     0.103 C 
ATOM     32  C2  IDS d 903     -27.562  78.007  22.590  0.00  0.00     0.134 C 
ATOM     33  S   IDS d 903     -26.737  77.224  25.112  0.00  0.00     0.252 S 
ATOM     34  C5  IDS d 903     -28.163  79.539  20.489  0.00  0.00     0.152 C 
ATOM     35  O62 IDS d 903     -28.388  79.519  18.114  0.00  0.00    -0.646 OA
ATOM     36  H   IDS d 903     -29.158  76.951  21.647  0.00  0.00     0.091 H 
ATOM     37  H   IDS d 903     -29.690  78.695  23.821  0.00  0.00     0.210 HD
ATOM     38  H   IDS d 903     -26.444  76.863  21.152  0.00  0.00     0.133 H 
ATOM     39  H   IDS d 903     -29.711  79.860  21.934  0.00  0.00     0.092 H 
ATOM     40  H   IDS d 903     -27.402  78.945  23.079  0.00  0.00     0.097 H 
ATOM     41  H   IDS d 903     -27.609  80.266  21.046  0.00  0.00     0.104 H 
ATOM     42  O6  SGN d 902     -34.099  81.392  22.324  0.00  0.00    -0.254 OA
ATOM     43  C1  SGN d 902     -31.688  78.452  20.950  0.00  0.00     0.150 C 
ATOM     44  C5  SGN d 902     -32.405  80.756  20.756  0.00  0.00     0.091 C 
ATOM     45  N   SGN d 902     -32.118  76.887  19.140  0.00  0.00    -0.210 NA
ATOM     46  S1  SGN d 902     -32.256  75.273  19.850  0.00  0.00     0.156 S 
ATOM     47  C4  SGN d 902     -33.394  80.382  19.651  0.00  0.00     0.095 C 
ATOM     48  O5S SGN d 902     -35.034  82.875  24.303  0.00  0.00    -0.572 OA
ATOM     49  C2  SGN d 902     -32.659  78.029  19.850  0.00  0.00     0.081 C 
ATOM     50  S2  SGN d 902     -35.336  82.508  22.905  0.00  0.00     0.251 S 
ATOM     51  O3S SGN d 902     -31.845  75.319  21.265  0.00  0.00    -0.296 OA
ATOM     52  C6  SGN d 902     -32.971  81.887  21.605  0.00  0.00     0.067 C 
ATOM     53  O3  SGN d 902     -33.772  78.811  17.871  0.00  0.00    -0.391 OA
ATOM     54  O2S SGN d 902     -33.656  74.819  19.762  0.00  0.00    -0.296 OA
ATOM     55  O6S SGN d 902     -35.339  83.718  22.061  0.00  0.00    -0.572 OA
ATOM     56  C3  SGN d 902     -32.859  79.184  18.878  0.00  0.00     0.083 C 
ATOM     57  O5  SGN d 902     -32.201  79.618  21.608  0.00  0.00    -0.349 OA
ATOM     58  O1S SGN d 902     -31.386  74.338  19.113  0.00  0.00    -0.296 OA
ATOM     59  O4S SGN d 902     -36.658  81.856  22.837  0.00  0.00    -0.572 OA
ATOM     60  O4  SGN d 902     -33.553  81.482  18.754  0.00  0.00    -0.348 OA
ATOM     61  O1  SGN d 902     -30.397  78.676  20.380  0.00  0.00    -0.348 OA
ATOM     62  H   SGN d 902     -31.589  77.681  21.685  0.00  0.00     0.131 H 
ATOM     63  H   SGN d 902     -31.485  81.065  20.306  0.00  0.00     0.090 H 
ATOM     64  H   SGN d 902     -31.123  77.067  19.004  0.00  0.00     0.140 HD
ATOM     65  H   SGN d 902     -34.339  80.139  20.091  0.00  0.00     0.091 H 
ATOM     66  H   SGN d 902     -33.598  77.763  20.286  0.00  0.00     0.076 H 
ATOM     67  H   SGN d 902     -30.924  75.617  21.325  0.00  0.00     0.231 HD
ATOM     68  H   SGN d 902     -32.226  82.229  22.293  0.00  0.00     0.080 H 
ATOM     69  H   SGN d 902     -33.264  82.703  20.978  0.00  0.00     0.080 H 
ATOM     70  H   SGN d 902     -33.895  79.550  17.255  0.00  0.00     0.210 HD
ATOM     71  H   SGN d 902     -33.929  74.787  18.831  0.00  0.00     0.231 HD
ATOM     72  H   SGN d 902     -31.929  79.438  18.415  0.00  0.00     0.089 H 
ATOM     73  H   SGN d 902     -31.658  74.309  18.181  0.00  0.00     0.231 HD
ATOM     74  O4S SGN d 904     -24.806  73.479  19.863  0.00  0.00    -0.572 OA
ATOM     75  O5S SGN d 904     -23.740  73.141  21.998  0.00  0.00    -0.572 OA
ATOM     76  C3  SGN d 904     -24.005  79.660  20.003  0.00  0.00     0.083 C 
ATOM     77  N   SGN d 904     -22.304  80.612  18.579  0.00  0.00    -0.210 NA
ATOM     78  O5  SGN d 904     -22.108  77.678  20.756  0.00  0.00    -0.350 OA
ATOM     79  O6S SGN d 904     -25.845  74.301  21.883  0.00  0.00    -0.572 OA
ATOM     80  O3S SGN d 904     -21.496  79.253  16.480  0.00  0.00    -0.296 OA
ATOM     81  O4  SGN d 904     -25.523  78.676  21.550  0.00  0.00    -0.348 OA
ATOM     82  S2  SGN d 904     -24.561  74.061  21.196  0.00  0.00     0.251 S 
ATOM     83  O1  SGN d 904     -21.326  79.876  21.087  0.00  0.00    -0.369 OA
ATOM     84  O3  SGN d 904     -25.019  80.092  19.124  0.00  0.00    -0.391 OA
ATOM     85  O2S SGN d 904     -21.297  81.659  16.369  0.00  0.00    -0.296 OA
ATOM     86  C5  SGN d 904     -23.278  77.854  21.562  0.00  0.00     0.091 C 
ATOM     87  O6  SGN d 904     -23.707  75.589  21.019  0.00  0.00    -0.254 OA
ATOM     88  O1S SGN d 904     -19.799  80.379  17.770  0.00  0.00    -0.296 OA
ATOM     89  C1  SGN d 904     -21.646  78.873  20.119  0.00  0.00     0.147 C 
ATOM     90  C4  SGN d 904     -24.425  78.371  20.693  0.00  0.00     0.095 C 
ATOM     91  C2  SGN d 904     -22.746  79.390  19.202  0.00  0.00     0.081 C 
ATOM     92  C6  SGN d 904     -23.644  76.493  22.120  0.00  0.00     0.067 C 
ATOM     93  S1  SGN d 904     -21.171  80.474  17.240  0.00  0.00     0.156 S 
ATOM     94  H   SGN d 904     -23.830  80.418  20.738  0.00  0.00     0.089 H 
ATOM     95  H   SGN d 904     -21.859  81.180  19.299  0.00  0.00     0.140 HD
ATOM     96  H   SGN d 904     -22.399  79.320  16.133  0.00  0.00     0.231 HD
ATOM     97  H   SGN d 904     -20.624  79.549  21.672  0.00  0.00     0.212 HD
ATOM     98  H   SGN d 904     -25.180  79.408  18.456  0.00  0.00     0.210 HD
ATOM     99  H   SGN d 904     -22.202  81.713  16.025  0.00  0.00     0.231 HD
ATOM    100  H   SGN d 904     -23.099  78.558  22.347  0.00  0.00     0.090 H 
ATOM    101  H   SGN d 904     -19.726  79.597  18.340  0.00  0.00     0.231 HD
ATOM    102  H   SGN d 904     -20.761  78.652  19.559  0.00  0.00     0.131 H 
ATOM    103  H   SGN d 904     -24.687  77.634  19.963  0.00  0.00     0.091 H 
ATOM    104  H   SGN d 904     -22.958  78.654  18.456  0.00  0.00     0.076 H 
ATOM    105  H   SGN d 904     -24.594  76.541  22.610  0.00  0.00     0.080 H 
ATOM    106  H   SGN d 904     -22.919  76.170  22.837  0.00  0.00     0.080 H 
ENDROOT
TORSDOF 33
ENDMDL
MODEL 63
REMARK VINA RESULT:      -6.5      4.922      9.782
REMARK  0 active torsions:
REMARK  status: ('A' for Active; 'I' for Inactive)
REMARK       I    between atoms: C3_1  and  O3_18 
REMARK       I    between atoms: O6_3  and  C6_41 
REMARK       I    between atoms: O6_3  and  S2_27 
REMARK       I    between atoms: C1_4  and  O1_67 
REMARK       I    between atoms: O2_6  and  C2_60 
REMARK       I    between atoms: O2_6  and  S_64 
REMARK       I    between atoms: C5_7  and  C6_41 
REMARK       I    between atoms: C6_9  and  C5_36 
REMARK       I    between atoms: N_10  and  C2_26 
REMARK       I    between atoms: N_10  and  S1_14 
REMARK       I    between atoms: O2_12  and  C2_39 
REMARK       I    between atoms: O2_12  and  S_34 
REMARK       I    between atoms: C3_13  and  O3_44 
REMARK       I    between atoms: S1_14  and  O1S_57 
REMARK       I    between atoms: S1_14  and  O2S_48 
REMARK       I    between atoms: S1_14  and  O3S_38 
REMARK       I    between atoms: C6_16  and  C5_68 
REMARK       I    between atoms: C4_17  and  O4_62 
REMARK       I    between atoms: N_21  and  C2_65 
REMARK       I    between atoms: N_21  and  S1_69 
REMARK       I    between atoms: C3_25  and  O3_30 
REMARK       I    between atoms: O3S_29  and  S1_69 
REMARK       I    between atoms: O4_31  and  C1_42 
REMARK       I    between atoms: O4_31  and  C4_63 
REMARK       I    between atoms: S2_35  and  O6_49 
REMARK       I    between atoms: O1_37  and  C1_61 
REMARK       I    between atoms: O2S_45  and  S1_69 
REMARK       I    between atoms: O3_46  and  C3_55 
REMARK       I    between atoms: C5_47  and  C6_66 
REMARK       I    between atoms: O6_49  and  C6_66 
REMARK       I    between atoms: O1S_52  and  S1_69 
REMARK       I    between atoms: C1_54  and  O4_62 
REMARK       I    between atoms: C4_59  and  O1_67 
ROOT
ATOM      1  C3  UAP d 901     -21.384  81.436  20.609  0.00  0.00     0.086 C 
ATOM      2  O1S UAP d 901     -20.382  82.777  24.951  0.00  0.00    -0.572 OA
ATOM      3  C6  UAP d 901     -21.112  83.766  17.795  0.00  0.00     0.233 C 
ATOM      4  O2  UAP d 901     -21.472  82.885  22.535  0.00  0.00    -0.244 OA
ATOM      5  O3  UAP d 901     -21.973  80.166  20.430  0.00  0.00    -0.389 OA
ATOM      6  O61 UAP d 901     -20.504  83.025  16.989  0.00  0.00    -0.642 OA
ATOM      7  O5  UAP d 901     -22.074  84.083  19.874  0.00  0.00    -0.311 OA
ATOM      8  O2S UAP d 901     -20.822  80.678  23.856  0.00  0.00    -0.572 OA
ATOM      9  S   UAP d 901     -21.323  82.046  24.083  0.00  0.00     0.252 S 
ATOM     10  C5  UAP d 901     -21.433  83.294  18.999  0.00  0.00     0.147 C 
ATOM     11  C2  UAP d 901     -22.266  82.311  21.500  0.00  0.00     0.135 C 
ATOM     12  O62 UAP d 901     -21.415  84.942  17.499  0.00  0.00    -0.642 OA
ATOM     13  O3S UAP d 901     -22.645  81.982  24.734  0.00  0.00    -0.572 OA
ATOM     14  C4  UAP d 901     -21.096  82.032  19.321  0.00  0.00    -0.034 C 
ATOM     15  C1  UAP d 901     -22.990  83.412  20.737  0.00  0.00     0.167 C 
ATOM     16  H   UAP d 901     -20.448  81.337  21.118  0.00  0.00     0.093 H 
ATOM     17  H   UAP d 901     -22.820  80.265  19.967  0.00  0.00     0.210 HD
ATOM     18  H   UAP d 901     -23.023  81.676  21.910  0.00  0.00     0.097 H 
ATOM     19  H   UAP d 901     -20.608  81.460  18.614  0.00  0.00     0.085 H 
ATOM     20  H   UAP d 901     -23.385  84.132  21.422  0.00  0.00     0.134 H 
ATOM     21  O1S IDS d 903     -35.370  85.125  18.796  0.00  0.00    -0.572 OA
ATOM     22  O2  IDS d 903     -32.943  84.137  18.425  0.00  0.00    -0.244 OA
ATOM     23  O5  IDS d 903     -30.688  81.372  18.079  0.00  0.00    -0.340 OA
ATOM     24  C6  IDS d 903     -28.648  80.721  19.089  0.00  0.00     0.206 C 
ATOM     25  O2S IDS d 903     -34.351  83.990  20.666  0.00  0.00    -0.572 OA
ATOM     26  C3  IDS d 903     -30.581  83.944  18.602  0.00  0.00     0.094 C 
ATOM     27  O3S IDS d 903     -33.559  86.168  19.997  0.00  0.00    -0.572 OA
ATOM     28  O3  IDS d 903     -30.524  85.235  19.170  0.00  0.00    -0.390 OA
ATOM     29  O61 IDS d 903     -27.859  80.664  20.049  0.00  0.00    -0.646 OA
ATOM     30  C1  IDS d 903     -31.993  81.954  18.220  0.00  0.00     0.161 C 
ATOM     31  C4  IDS d 903     -29.468  83.076  19.204  0.00  0.00     0.103 C 
ATOM     32  C2  IDS d 903     -31.908  83.308  18.940  0.00  0.00     0.134 C 
ATOM     33  S   IDS d 903     -34.108  84.882  19.518  0.00  0.00     0.252 S 
ATOM     34  C5  IDS d 903     -29.878  81.598  19.222  0.00  0.00     0.152 C 
ATOM     35  O62 IDS d 903     -28.478  80.083  18.024  0.00  0.00    -0.646 OA
ATOM     36  H   IDS d 903     -30.463  84.020  17.542  0.00  0.00     0.091 H 
ATOM     37  H   IDS d 903     -30.631  85.170  20.131  0.00  0.00     0.210 HD
ATOM     38  H   IDS d 903     -32.408  82.085  17.243  0.00  0.00     0.133 H 
ATOM     39  H   IDS d 903     -29.287  83.407  20.205  0.00  0.00     0.092 H 
ATOM     40  H   IDS d 903     -32.005  83.184  19.998  0.00  0.00     0.097 H 
ATOM     41  H   IDS d 903     -30.390  81.370  20.134  0.00  0.00     0.104 H 
ATOM     42  O6  SGN d 902     -25.509  85.702  21.693  0.00  0.00    -0.254 OA
ATOM     43  C1  SGN d 902     -27.621  84.457  18.479  0.00  0.00     0.150 C 
ATOM     44  C5  SGN d 902     -26.249  83.844  20.377  0.00  0.00     0.091 C 
ATOM     45  N   SGN d 902     -26.816  84.067  16.218  0.00  0.00    -0.210 NA
ATOM     46  S1  SGN d 902     -27.561  85.280  15.168  0.00  0.00     0.156 S 
ATOM     47  C4  SGN d 902     -24.999  83.812  19.495  0.00  0.00     0.095 C 
ATOM     48  O5S SGN d 902     -25.332  87.060  23.955  0.00  0.00    -0.572 OA
ATOM     49  C2  SGN d 902     -26.404  84.436  17.557  0.00  0.00     0.081 C 
ATOM     50  S2  SGN d 902     -24.480  86.409  22.940  0.00  0.00     0.251 S 
ATOM     51  O3S SGN d 902     -28.607  86.003  15.914  0.00  0.00    -0.296 OA
ATOM     52  C6  SGN d 902     -25.892  84.331  21.774  0.00  0.00     0.067 C 
ATOM     53  O3  SGN d 902     -24.254  83.414  17.244  0.00  0.00    -0.391 OA
ATOM     54  O2S SGN d 902     -26.531  86.235  14.718  0.00  0.00    -0.296 OA
ATOM     55  O6S SGN d 902     -23.676  85.346  23.572  0.00  0.00    -0.572 OA
ATOM     56  C3  SGN d 902     -25.391  83.423  18.076  0.00  0.00     0.083 C 
ATOM     57  O5  SGN d 902     -27.197  84.765  19.814  0.00  0.00    -0.349 OA
ATOM     58  O1S SGN d 902     -28.160  84.612  13.998  0.00  0.00    -0.296 OA
ATOM     59  O4S SGN d 902     -23.584  87.409  22.329  0.00  0.00    -0.572 OA
ATOM     60  O4  SGN d 902     -24.076  82.848  20.003  0.00  0.00    -0.348 OA
ATOM     61  O1  SGN d 902     -28.294  83.199  18.401  0.00  0.00    -0.348 OA
ATOM     62  H   SGN d 902     -28.314  85.214  18.175  0.00  0.00     0.131 H 
ATOM     63  H   SGN d 902     -26.660  82.858  20.429  0.00  0.00     0.090 H 
ATOM     64  H   SGN d 902     -27.488  83.305  16.315  0.00  0.00     0.140 HD
ATOM     65  H   SGN d 902     -24.543  84.780  19.494  0.00  0.00     0.091 H 
ATOM     66  H   SGN d 902     -25.957  85.408  17.535  0.00  0.00     0.076 H 
ATOM     67  H   SGN d 902     -29.285  85.377  16.210  0.00  0.00     0.231 HD
ATOM     68  H   SGN d 902     -26.740  84.231  22.419  0.00  0.00     0.080 H 
ATOM     69  H   SGN d 902     -25.086  83.748  22.170  0.00  0.00     0.080 H 
ATOM     70  H   SGN d 902     -23.613  82.767  17.580  0.00  0.00     0.210 HD
ATOM     71  H   SGN d 902     -25.842  85.761  14.227  0.00  0.00     0.231 HD
ATOM     72  H   SGN d 902     -25.821  82.444  18.075  0.00  0.00     0.089 H 
ATOM     73  H   SGN d 902     -27.470  84.136  13.508  0.00  0.00     0.231 HD
ATOM     74  O4S SGN d 904     -34.079  81.536  13.678  0.00  0.00    -0.572 OA
ATOM     75  O5S SGN d 904     -36.138  82.521  14.453  0.00  0.00    -0.572 OA
ATOM     76  C3  SGN d 904     -32.922  78.723  19.121  0.00  0.00     0.083 C 
ATOM     77  N   SGN d 904     -33.261  76.337  19.254  0.00  0.00    -0.210 NA
ATOM     78  O5  SGN d 904     -35.430  78.893  17.790  0.00  0.00    -0.350 OA
ATOM     79  O6S SGN d 904     -34.040  83.244  15.386  0.00  0.00    -0.572 OA
ATOM     80  O3S SGN d 904     -33.236  74.923  17.040  0.00  0.00    -0.296 OA
ATOM     81  O4  SGN d 904     -32.802  81.098  19.022  0.00  0.00    -0.348 OA
ATOM     82  S2  SGN d 904     -34.787  82.091  14.848  0.00  0.00     0.251 S 
ATOM     83  O1  SGN d 904     -35.563  77.791  19.868  0.00  0.00    -0.369 OA
ATOM     84  O3  SGN d 904     -31.525  78.547  19.051  0.00  0.00    -0.391 OA
ATOM     85  O2S SGN d 904     -32.610  73.780  19.075  0.00  0.00    -0.296 OA
ATOM     86  C5  SGN d 904     -34.855  80.086  18.333  0.00  0.00     0.091 C 
ATOM     87  O6  SGN d 904     -34.918  80.856  16.093  0.00  0.00    -0.254 OA
ATOM     88  O1S SGN d 904     -34.920  74.365  18.671  0.00  0.00    -0.296 OA
ATOM     89  C1  SGN d 904     -35.110  77.701  18.515  0.00  0.00     0.147 C 
ATOM     90  C4  SGN d 904     -33.331  79.963  18.341  0.00  0.00     0.095 C 
ATOM     91  C2  SGN d 904     -33.599  77.517  18.499  0.00  0.00     0.081 C 
ATOM     92  C6  SGN d 904     -35.263  81.230  17.425  0.00  0.00     0.067 C 
ATOM     93  S1  SGN d 904     -33.519  74.778  18.479  0.00  0.00     0.156 S 
ATOM     94  H   SGN d 904     -33.212  78.834  20.145  0.00  0.00     0.089 H 
ATOM     95  H   SGN d 904     -33.818  76.350  20.109  0.00  0.00     0.140 HD
ATOM     96  H   SGN d 904     -32.313  75.194  16.918  0.00  0.00     0.231 HD
ATOM     97  H   SGN d 904     -36.525  77.909  19.880  0.00  0.00     0.212 HD
ATOM     98  H   SGN d 904     -31.258  78.446  18.125  0.00  0.00     0.210 HD
ATOM     99  H   SGN d 904     -31.690  74.060  18.944  0.00  0.00     0.231 HD
ATOM    100  H   SGN d 904     -35.192  80.251  19.335  0.00  0.00     0.090 H 
ATOM    101  H   SGN d 904     -35.510  75.027  18.277  0.00  0.00     0.231 HD
ATOM    102  H   SGN d 904     -35.597  76.868  18.052  0.00  0.00     0.131 H 
ATOM    103  H   SGN d 904     -32.968  79.900  17.337  0.00  0.00     0.091 H 
ATOM    104  H   SGN d 904     -33.266  77.412  17.488  0.00  0.00     0.076 H 
ATOM    105  H   SGN d 904     -34.740  82.122  17.702  0.00  0.00     0.080 H 
ATOM    106  H   SGN d 904     -36.312  81.424  17.506  0.00  0.00     0.080 H 
ENDROOT
TORSDOF 33
ENDMDL
MODEL 64
REMARK VINA RESULT:      -6.4      5.730     10.055
REMARK  0 active torsions:
REMARK  status: ('A' for Active; 'I' for Inactive)
REMARK       I    between atoms: C3_1  and  O3_18 
REMARK       I    between atoms: O6_3  and  C6_41 
REMARK       I    between atoms: O6_3  and  S2_27 
REMARK       I    between atoms: C1_4  and  O1_67 
REMARK       I    between atoms: O2_6  and  C2_60 
REMARK       I    between atoms: O2_6  and  S_64 
REMARK       I    between atoms: C5_7  and  C6_41 
REMARK       I    between atoms: C6_9  and  C5_36 
REMARK       I    between atoms: N_10  and  C2_26 
REMARK       I    between atoms: N_10  and  S1_14 
REMARK       I    between atoms: O2_12  and  C2_39 
REMARK       I    between atoms: O2_12  and  S_34 
REMARK       I    between atoms: C3_13  and  O3_44 
REMARK       I    between atoms: S1_14  and  O1S_57 
REMARK       I    between atoms: S1_14  and  O2S_48 
REMARK       I    between atoms: S1_14  and  O3S_38 
REMARK       I    between atoms: C6_16  and  C5_68 
REMARK       I    between atoms: C4_17  and  O4_62 
REMARK       I    between atoms: N_21  and  C2_65 
REMARK       I    between atoms: N_21  and  S1_69 
REMARK       I    between atoms: C3_25  and  O3_30 
REMARK       I    between atoms: O3S_29  and  S1_69 
REMARK       I    between atoms: O4_31  and  C1_42 
REMARK       I    between atoms: O4_31  and  C4_63 
REMARK       I    between atoms: S2_35  and  O6_49 
REMARK       I    between atoms: O1_37  and  C1_61 
REMARK       I    between atoms: O2S_45  and  S1_69 
REMARK       I    between atoms: O3_46  and  C3_55 
REMARK       I    between atoms: C5_47  and  C6_66 
REMARK       I    between atoms: O6_49  and  C6_66 
REMARK       I    between atoms: O1S_52  and  S1_69 
REMARK       I    between atoms: C1_54  and  O4_62 
REMARK       I    between atoms: C4_59  and  O1_67 
ROOT
ATOM      1  C3  UAP d 901     -20.633  76.943  23.842  0.00  0.00     0.086 C 
ATOM      2  O1S UAP d 901     -20.938  72.375  23.004  0.00  0.00    -0.572 OA
ATOM      3  C6  UAP d 901     -22.540  78.504  26.553  0.00  0.00     0.233 C 
ATOM      4  O2  UAP d 901     -21.772  74.847  23.484  0.00  0.00    -0.244 OA
ATOM      5  O3  UAP d 901     -19.933  77.739  22.910  0.00  0.00    -0.389 OA
ATOM      6  O61 UAP d 901     -21.629  79.202  27.053  0.00  0.00    -0.642 OA
ATOM      7  O5  UAP d 901     -23.238  76.985  24.953  0.00  0.00    -0.311 OA
ATOM      8  O2S UAP d 901     -19.521  74.172  22.254  0.00  0.00    -0.572 OA
ATOM      9  S   UAP d 901     -20.917  73.728  22.417  0.00  0.00     0.252 S 
ATOM     10  C5  UAP d 901     -22.271  77.745  25.490  0.00  0.00     0.147 C 
ATOM     11  C2  UAP d 901     -21.806  76.236  23.163  0.00  0.00     0.135 C 
ATOM     12  O62 UAP d 901     -23.694  78.496  27.033  0.00  0.00    -0.642 OA
ATOM     13  O3S UAP d 901     -21.582  73.705  21.101  0.00  0.00    -0.572 OA
ATOM     14  C4  UAP d 901     -21.026  77.747  24.981  0.00  0.00    -0.034 C 
ATOM     15  C1  UAP d 901     -23.162  76.818  23.540  0.00  0.00     0.167 C 
ATOM     16  H   UAP d 901     -19.994  76.170  24.217  0.00  0.00     0.093 H 
ATOM     17  H   UAP d 901     -20.519  78.436  22.577  0.00  0.00     0.210 HD
ATOM     18  H   UAP d 901     -21.692  76.384  22.110  0.00  0.00     0.097 H 
ATOM     19  H   UAP d 901     -20.317  78.350  25.424  0.00  0.00     0.085 H 
ATOM     20  H   UAP d 901     -23.942  76.148  23.244  0.00  0.00     0.134 H 
ATOM     21  O1S IDS d 903     -31.697  82.767  16.349  0.00  0.00    -0.572 OA
ATOM     22  O2  IDS d 903     -29.528  82.460  17.832  0.00  0.00    -0.244 OA
ATOM     23  O5  IDS d 903     -25.994  82.776  18.347  0.00  0.00    -0.340 OA
ATOM     24  C6  IDS d 903     -24.248  81.321  19.010  0.00  0.00     0.206 C 
ATOM     25  O2S IDS d 903     -30.089  81.127  15.611  0.00  0.00    -0.572 OA
ATOM     26  C3  IDS d 903     -28.019  81.448  19.365  0.00  0.00     0.094 C 
ATOM     27  O3S IDS d 903     -31.463  80.687  17.543  0.00  0.00    -0.572 OA
ATOM     28  O3  IDS d 903     -29.017  80.518  19.724  0.00  0.00    -0.390 OA
ATOM     29  O61 IDS d 903     -23.703  80.203  19.070  0.00  0.00    -0.646 OA
ATOM     30  C1  IDS d 903     -27.206  82.974  17.602  0.00  0.00     0.161 C 
ATOM     31  C4  IDS d 903     -26.643  80.777  19.461  0.00  0.00     0.103 C 
ATOM     32  C2  IDS d 903     -28.232  81.882  17.934  0.00  0.00     0.134 C 
ATOM     33  S   IDS d 903     -30.744  81.731  16.785  0.00  0.00     0.252 S 
ATOM     34  C5  IDS d 903     -25.660  81.401  18.461  0.00  0.00     0.152 C 
ATOM     35  O62 IDS d 903     -23.684  82.378  19.372  0.00  0.00    -0.646 OA
ATOM     36  H   IDS d 903     -28.070  82.291  20.021  0.00  0.00     0.091 H 
ATOM     37  H   IDS d 903     -28.974  79.752  19.131  0.00  0.00     0.210 HD
ATOM     38  H   IDS d 903     -27.600  83.936  17.856  0.00  0.00     0.133 H 
ATOM     39  H   IDS d 903     -26.759  79.736  19.241  0.00  0.00     0.092 H 
ATOM     40  H   IDS d 903     -28.129  81.048  17.272  0.00  0.00     0.097 H 
ATOM     41  H   IDS d 903     -25.715  80.889  17.523  0.00  0.00     0.104 H 
ATOM     42  O6  SGN d 902     -26.423  76.234  22.304  0.00  0.00    -0.254 OA
ATOM     43  C1  SGN d 902     -26.767  80.232  21.813  0.00  0.00     0.150 C 
ATOM     44  C5  SGN d 902     -25.385  78.260  21.562  0.00  0.00     0.091 C 
ATOM     45  N   SGN d 902     -26.108  81.992  23.355  0.00  0.00    -0.210 NA
ATOM     46  S1  SGN d 902     -27.582  82.794  23.914  0.00  0.00     0.156 S 
ATOM     47  C4  SGN d 902     -24.696  78.543  22.898  0.00  0.00     0.095 C 
ATOM     48  O5S SGN d 902     -27.319  73.776  21.925  0.00  0.00    -0.572 OA
ATOM     49  C2  SGN d 902     -26.107  80.558  23.151  0.00  0.00     0.081 C 
ATOM     50  S2  SGN d 902     -26.355  74.529  22.751  0.00  0.00     0.251 S 
ATOM     51  O3S SGN d 902     -28.731  82.325  23.118  0.00  0.00    -0.296 OA
ATOM     52  C6  SGN d 902     -25.509  76.759  21.342  0.00  0.00     0.067 C 
ATOM     53  O3  SGN d 902     -24.063  80.319  24.388  0.00  0.00    -0.391 OA
ATOM     54  O2S SGN d 902     -27.806  82.469  25.335  0.00  0.00    -0.296 OA
ATOM     55  O6S SGN d 902     -24.991  74.016  22.517  0.00  0.00    -0.572 OA
ATOM     56  C3  SGN d 902     -24.673  80.044  23.148  0.00  0.00     0.083 C 
ATOM     57  O5  SGN d 902     -26.709  78.817  21.590  0.00  0.00    -0.349 OA
ATOM     58  O1S SGN d 902     -27.435  84.252  23.758  0.00  0.00    -0.296 OA
ATOM     59  O4S SGN d 902     -26.699  74.380  24.178  0.00  0.00    -0.572 OA
ATOM     60  O4  SGN d 902     -23.353  78.057  22.858  0.00  0.00    -0.348 OA
ATOM     61  O1  SGN d 902     -26.119  80.970  20.775  0.00  0.00    -0.348 OA
ATOM     62  H   SGN d 902     -27.798  80.519  21.819  0.00  0.00     0.131 H 
ATOM     63  H   SGN d 902     -24.805  78.696  20.775  0.00  0.00     0.090 H 
ATOM     64  H   SGN d 902     -25.858  82.418  22.462  0.00  0.00     0.140 HD
ATOM     65  H   SGN d 902     -25.232  78.051  23.682  0.00  0.00     0.091 H 
ATOM     66  H   SGN d 902     -26.653  80.086  23.941  0.00  0.00     0.076 H 
ATOM     67  H   SGN d 902     -28.586  82.538  22.183  0.00  0.00     0.231 HD
ATOM     68  H   SGN d 902     -25.874  76.567  20.355  0.00  0.00     0.080 H 
ATOM     69  H   SGN d 902     -24.552  76.293  21.453  0.00  0.00     0.080 H 
ATOM     70  H   SGN d 902     -23.151  79.990  24.380  0.00  0.00     0.210 HD
ATOM     71  H   SGN d 902     -27.051  82.777  25.860  0.00  0.00     0.231 HD
ATOM     72  H   SGN d 902     -24.112  80.531  22.378  0.00  0.00     0.089 H 
ATOM     73  H   SGN d 902     -26.678  84.559  24.282  0.00  0.00     0.231 HD
ATOM     74  O4S SGN d 904     -28.284  87.837  18.188  0.00  0.00    -0.572 OA
ATOM     75  O5S SGN d 904     -30.222  87.654  16.765  0.00  0.00    -0.572 OA
ATOM     76  C3  SGN d 904     -25.031  83.610  14.959  0.00  0.00     0.083 C 
ATOM     77  N   SGN d 904     -23.255  84.403  13.529  0.00  0.00    -0.210 NA
ATOM     78  O5  SGN d 904     -26.664  85.681  13.894  0.00  0.00    -0.350 OA
ATOM     79  O6S SGN d 904     -29.576  85.797  18.153  0.00  0.00    -0.572 OA
ATOM     80  O3S SGN d 904     -22.195  86.759  14.003  0.00  0.00    -0.296 OA
ATOM     81  O4  SGN d 904     -26.919  82.878  16.209  0.00  0.00    -0.348 OA
ATOM     82  S2  SGN d 904     -29.080  86.926  17.344  0.00  0.00     0.251 S 
ATOM     83  O1  SGN d 904     -25.725  84.300  12.231  0.00  0.00    -0.369 OA
ATOM     84  O3  SGN d 904     -24.097  83.182  15.925  0.00  0.00    -0.391 OA
ATOM     85  O2S SGN d 904     -20.794  85.133  12.893  0.00  0.00    -0.296 OA
ATOM     86  C5  SGN d 904     -27.290  84.601  14.595  0.00  0.00     0.091 C 
ATOM     87  O6  SGN d 904     -28.074  86.305  16.041  0.00  0.00    -0.254 OA
ATOM     88  O1S SGN d 904     -22.608  86.193  11.696  0.00  0.00    -0.296 OA
ATOM     89  C1  SGN d 904     -25.465  85.319  13.201  0.00  0.00     0.147 C 
ATOM     90  C4  SGN d 904     -26.323  84.039  15.638  0.00  0.00     0.095 C 
ATOM     91  C2  SGN d 904     -24.457  84.802  14.218  0.00  0.00     0.081 C 
ATOM     92  C6  SGN d 904     -28.508  85.171  15.294  0.00  0.00     0.067 C 
ATOM     93  S1  SGN d 904     -22.162  85.677  13.003  0.00  0.00     0.156 S 
ATOM     94  H   SGN d 904     -25.232  82.805  14.284  0.00  0.00     0.089 H 
ATOM     95  H   SGN d 904     -23.537  83.879  12.699  0.00  0.00     0.140 HD
ATOM     96  H   SGN d 904     -21.901  86.416  14.860  0.00  0.00     0.231 HD
ATOM     97  H   SGN d 904     -26.367  84.627  11.583  0.00  0.00     0.212 HD
ATOM     98  H   SGN d 904     -23.911  83.909  16.539  0.00  0.00     0.210 HD
ATOM     99  H   SGN d 904     -20.510  84.796  13.757  0.00  0.00     0.231 HD
ATOM    100  H   SGN d 904     -27.563  83.816  13.922  0.00  0.00     0.090 H 
ATOM    101  H   SGN d 904     -23.507  86.548  11.778  0.00  0.00     0.231 HD
ATOM    102  H   SGN d 904     -25.081  86.177  12.691  0.00  0.00     0.131 H 
ATOM    103  H   SGN d 904     -26.118  84.783  16.378  0.00  0.00     0.091 H 
ATOM    104  H   SGN d 904     -24.235  85.577  14.921  0.00  0.00     0.076 H 
ATOM    105  H   SGN d 904     -28.930  84.439  15.951  0.00  0.00     0.080 H 
ATOM    106  H   SGN d 904     -29.258  85.448  14.583  0.00  0.00     0.080 H 
ENDROOT
TORSDOF 33
ENDMDL
MODEL 65
REMARK VINA RESULT:      -6.4      4.462      8.687
REMARK  0 active torsions:
REMARK  status: ('A' for Active; 'I' for Inactive)
REMARK       I    between atoms: C3_1  and  O3_18 
REMARK       I    between atoms: O6_3  and  C6_41 
REMARK       I    between atoms: O6_3  and  S2_27 
REMARK       I    between atoms: C1_4  and  O1_67 
REMARK       I    between atoms: O2_6  and  C2_60 
REMARK       I    between atoms: O2_6  and  S_64 
REMARK       I    between atoms: C5_7  and  C6_41 
REMARK       I    between atoms: C6_9  and  C5_36 
REMARK       I    between atoms: N_10  and  C2_26 
REMARK       I    between atoms: N_10  and  S1_14 
REMARK       I    between atoms: O2_12  and  C2_39 
REMARK       I    between atoms: O2_12  and  S_34 
REMARK       I    between atoms: C3_13  and  O3_44 
REMARK       I    between atoms: S1_14  and  O1S_57 
REMARK       I    between atoms: S1_14  and  O2S_48 
REMARK       I    between atoms: S1_14  and  O3S_38 
REMARK       I    between atoms: C6_16  and  C5_68 
REMARK       I    between atoms: C4_17  and  O4_62 
REMARK       I    between atoms: N_21  and  C2_65 
REMARK       I    between atoms: N_21  and  S1_69 
REMARK       I    between atoms: C3_25  and  O3_30 
REMARK       I    between atoms: O3S_29  and  S1_69 
REMARK       I    between atoms: O4_31  and  C1_42 
REMARK       I    between atoms: O4_31  and  C4_63 
REMARK       I    between atoms: S2_35  and  O6_49 
REMARK       I    between atoms: O1_37  and  C1_61 
REMARK       I    between atoms: O2S_45  and  S1_69 
REMARK       I    between atoms: O3_46  and  C3_55 
REMARK       I    between atoms: C5_47  and  C6_66 
REMARK       I    between atoms: O6_49  and  C6_66 
REMARK       I    between atoms: O1S_52  and  S1_69 
REMARK       I    between atoms: C1_54  and  O4_62 
REMARK       I    between atoms: C4_59  and  O1_67 
ROOT
ATOM      1  C3  UAP d 901     -34.664  79.168  15.336  0.00  0.00     0.086 C 
ATOM      2  O1S UAP d 901     -38.734  81.412  15.582  0.00  0.00    -0.572 OA
ATOM      3  C6  UAP d 901     -33.529  76.996  18.060  0.00  0.00     0.233 C 
ATOM      4  O2  UAP d 901     -36.358  80.536  16.374  0.00  0.00    -0.244 OA
ATOM      5  O3  UAP d 901     -33.795  79.492  14.272  0.00  0.00    -0.389 OA
ATOM      6  O61 UAP d 901     -33.158  76.012  17.380  0.00  0.00    -0.642 OA
ATOM      7  O5  UAP d 901     -34.438  79.121  18.159  0.00  0.00    -0.311 OA
ATOM      8  O2S UAP d 901     -37.090  81.010  13.869  0.00  0.00    -0.572 OA
ATOM      9  S   UAP d 901     -37.303  81.508  15.240  0.00  0.00     0.252 S 
ATOM     10  C5  UAP d 901     -34.027  78.066  17.440  0.00  0.00     0.147 C 
ATOM     11  C2  UAP d 901     -34.951  80.408  16.185  0.00  0.00     0.135 C 
ATOM     12  O62 UAP d 901     -33.452  76.994  19.307  0.00  0.00    -0.642 OA
ATOM     13  O3S UAP d 901     -36.869  82.915  15.323  0.00  0.00    -0.572 OA
ATOM     14  C4  UAP d 901     -34.120  78.063  16.098  0.00  0.00    -0.034 C 
ATOM     15  C1  UAP d 901     -34.250  80.389  17.536  0.00  0.00     0.167 C 
ATOM     16  H   UAP d 901     -35.608  78.843  14.953  0.00  0.00     0.093 H 
ATOM     17  H   UAP d 901     -32.942  79.786  14.629  0.00  0.00     0.210 HD
ATOM     18  H   UAP d 901     -34.562  81.248  15.650  0.00  0.00     0.097 H 
ATOM     19  H   UAP d 901     -33.787  77.231  15.586  0.00  0.00     0.085 H 
ATOM     20  H   UAP d 901     -34.670  81.137  18.176  0.00  0.00     0.134 H 
ATOM     21  O1S IDS d 903     -25.226  87.998  22.079  0.00  0.00    -0.572 OA
ATOM     22  O2  IDS d 903     -26.287  85.999  20.707  0.00  0.00    -0.244 OA
ATOM     23  O5  IDS d 903     -26.754  84.169  17.660  0.00  0.00    -0.340 OA
ATOM     24  C6  IDS d 903     -28.620  83.397  16.425  0.00  0.00     0.206 C 
ATOM     25  O2S IDS d 903     -26.885  88.566  20.422  0.00  0.00    -0.572 OA
ATOM     26  C3  IDS d 903     -27.911  84.412  20.006  0.00  0.00     0.094 C 
ATOM     27  O3S IDS d 903     -27.549  87.496  22.479  0.00  0.00    -0.572 OA
ATOM     28  O3  IDS d 903     -28.707  84.741  21.124  0.00  0.00    -0.390 OA
ATOM     29  O61 IDS d 903     -29.795  83.487  16.024  0.00  0.00    -0.646 OA
ATOM     30  C1  IDS d 903     -26.158  85.204  18.458  0.00  0.00     0.161 C 
ATOM     31  C4  IDS d 903     -28.821  84.034  18.830  0.00  0.00     0.103 C 
ATOM     32  C2  IDS d 903     -27.095  85.617  19.601  0.00  0.00     0.134 C 
ATOM     33  S   IDS d 903     -26.493  87.584  21.449  0.00  0.00     0.252 S 
ATOM     34  C5  IDS d 903     -28.150  84.367  17.491  0.00  0.00     0.152 C 
ATOM     35  O62 IDS d 903     -27.810  82.551  15.983  0.00  0.00    -0.646 OA
ATOM     36  H   IDS d 903     -27.269  83.595  20.259  0.00  0.00     0.091 H 
ATOM     37  H   IDS d 903     -29.290  85.482  20.898  0.00  0.00     0.210 HD
ATOM     38  H   IDS d 903     -25.237  84.829  18.856  0.00  0.00     0.133 H 
ATOM     39  H   IDS d 903     -29.733  84.587  18.918  0.00  0.00     0.092 H 
ATOM     40  H   IDS d 903     -27.737  86.417  19.298  0.00  0.00     0.097 H 
ATOM     41  H   IDS d 903     -28.387  85.369  17.201  0.00  0.00     0.104 H 
ATOM     42  O6  SGN d 902     -33.902  82.837  20.064  0.00  0.00    -0.254 OA
ATOM     43  C1  SGN d 902     -29.916  82.174  19.919  0.00  0.00     0.150 C 
ATOM     44  C5  SGN d 902     -31.974  82.496  18.685  0.00  0.00     0.091 C 
ATOM     45  N   SGN d 902     -28.758  80.039  19.815  0.00  0.00    -0.210 NA
ATOM     46  S1  SGN d 902     -27.873  79.837  21.334  0.00  0.00     0.156 S 
ATOM     47  C4  SGN d 902     -32.171  80.984  18.569  0.00  0.00     0.095 C 
ATOM     48  O5S SGN d 902     -35.979  84.246  20.895  0.00  0.00    -0.572 OA
ATOM     49  C2  SGN d 902     -30.068  80.657  19.828  0.00  0.00     0.081 C 
ATOM     50  S2  SGN d 902     -35.648  82.940  20.292  0.00  0.00     0.251 S 
ATOM     51  O3S SGN d 902     -27.908  81.097  22.098  0.00  0.00    -0.296 OA
ATOM     52  C6  SGN d 902     -33.322  83.193  18.810  0.00  0.00     0.067 C 
ATOM     53  O3  SGN d 902     -30.978  78.899  18.469  0.00  0.00    -0.391 OA
ATOM     54  O2S SGN d 902     -28.504  78.766  22.127  0.00  0.00    -0.296 OA
ATOM     55  O6S SGN d 902     -36.321  82.809  18.986  0.00  0.00    -0.572 OA
ATOM     56  C3  SGN d 902     -30.813  80.297  18.549  0.00  0.00     0.083 C 
ATOM     57  O5  SGN d 902     -31.215  82.781  19.870  0.00  0.00    -0.349 OA
ATOM     58  O1S SGN d 902     -26.474  79.476  21.040  0.00  0.00    -0.296 OA
ATOM     59  O4S SGN d 902     -36.091  81.854  21.187  0.00  0.00    -0.572 OA
ATOM     60  O4  SGN d 902     -32.864  80.680  17.358  0.00  0.00    -0.348 OA
ATOM     61  O1  SGN d 902     -29.067  82.627  18.863  0.00  0.00    -0.348 OA
ATOM     62  H   SGN d 902     -29.460  82.455  20.845  0.00  0.00     0.131 H 
ATOM     63  H   SGN d 902     -31.464  82.846  17.812  0.00  0.00     0.090 H 
ATOM     64  H   SGN d 902     -28.169  80.605  19.203  0.00  0.00     0.140 HD
ATOM     65  H   SGN d 902     -32.742  80.638  19.406  0.00  0.00     0.091 H 
ATOM     66  H   SGN d 902     -30.619  80.303  20.674  0.00  0.00     0.076 H 
ATOM     67  H   SGN d 902     -27.493  81.803  21.578  0.00  0.00     0.231 HD
ATOM     68  H   SGN d 902     -33.186  84.253  18.762  0.00  0.00     0.080 H 
ATOM     69  H   SGN d 902     -33.966  82.891  18.010  0.00  0.00     0.080 H 
ATOM     70  H   SGN d 902     -31.453  78.677  17.653  0.00  0.00     0.210 HD
ATOM     71  H   SGN d 902     -28.481  77.935  21.626  0.00  0.00     0.231 HD
ATOM     72  H   SGN d 902     -30.255  80.622  17.697  0.00  0.00     0.089 H 
ATOM     73  H   SGN d 902     -26.452  78.646  20.538  0.00  0.00     0.231 HD
ATOM     74  O4S SGN d 904     -21.493  83.593  19.357  0.00  0.00    -0.572 OA
ATOM     75  O5S SGN d 904     -20.956  85.604  20.573  0.00  0.00    -0.572 OA
ATOM     76  C3  SGN d 904     -25.270  86.548  15.372  0.00  0.00     0.083 C 
ATOM     77  N   SGN d 904     -24.472  86.923  13.125  0.00  0.00    -0.210 NA
ATOM     78  O5  SGN d 904     -22.737  87.446  16.303  0.00  0.00    -0.350 OA
ATOM     79  O6S SGN d 904     -23.191  84.715  20.659  0.00  0.00    -0.572 OA
ATOM     80  O3S SGN d 904     -22.545  85.402  12.189  0.00  0.00    -0.296 OA
ATOM     81  O4  SGN d 904     -25.945  86.356  17.646  0.00  0.00    -0.348 OA
ATOM     82  S2  SGN d 904     -22.000  84.904  19.808  0.00  0.00     0.251 S 
ATOM     83  O1  SGN d 904     -23.794  88.991  14.872  0.00  0.00    -0.369 OA
ATOM     84  O3  SGN d 904     -26.092  85.490  14.931  0.00  0.00    -0.391 OA
ATOM     85  O2S SGN d 904     -24.059  86.368  10.572  0.00  0.00    -0.296 OA
ATOM     86  C5  SGN d 904     -23.829  87.385  17.227  0.00  0.00     0.091 C 
ATOM     87  O6  SGN d 904     -22.438  85.875  18.409  0.00  0.00    -0.254 OA
ATOM     88  O1S SGN d 904     -22.420  87.755  11.683  0.00  0.00    -0.296 OA
ATOM     89  C1  SGN d 904     -23.120  87.732  14.955  0.00  0.00     0.147 C 
ATOM     90  C4  SGN d 904     -24.803  86.288  16.796  0.00  0.00     0.095 C 
ATOM     91  C2  SGN d 904     -24.052  86.629  14.472  0.00  0.00     0.081 C 
ATOM     92  C6  SGN d 904     -23.247  87.037  18.583  0.00  0.00     0.067 C 
ATOM     93  S1  SGN d 904     -23.324  86.601  11.831  0.00  0.00     0.156 S 
ATOM     94  H   SGN d 904     -25.826  87.462  15.340  0.00  0.00     0.089 H 
ATOM     95  H   SGN d 904     -24.706  87.915  13.086  0.00  0.00     0.140 HD
ATOM     96  H   SGN d 904     -23.143  84.645  12.285  0.00  0.00     0.231 HD
ATOM     97  H   SGN d 904     -23.201  89.695  15.179  0.00  0.00     0.212 HD
ATOM     98  H   SGN d 904     -25.592  84.660  14.959  0.00  0.00     0.210 HD
ATOM     99  H   SGN d 904     -24.651  85.607  10.679  0.00  0.00     0.231 HD
ATOM    100  H   SGN d 904     -24.353  88.316  17.260  0.00  0.00     0.090 H 
ATOM    101  H   SGN d 904     -21.941  87.900  12.515  0.00  0.00     0.231 HD
ATOM    102  H   SGN d 904     -22.243  87.780  14.343  0.00  0.00     0.131 H 
ATOM    103  H   SGN d 904     -24.323  85.334  16.855  0.00  0.00     0.091 H 
ATOM    104  H   SGN d 904     -23.535  85.693  14.499  0.00  0.00     0.076 H 
ATOM    105  H   SGN d 904     -24.034  86.835  19.279  0.00  0.00     0.080 H 
ATOM    106  H   SGN d 904     -22.667  87.850  18.967  0.00  0.00     0.080 H 
ENDROOT
TORSDOF 33
ENDMDL
MODEL 66
REMARK VINA RESULT:      -6.4      4.221      7.403
REMARK  0 active torsions:
REMARK  status: ('A' for Active; 'I' for Inactive)
REMARK       I    between atoms: C3_1  and  O3_18 
REMARK       I    between atoms: O6_3  and  C6_41 
REMARK       I    between atoms: O6_3  and  S2_27 
REMARK       I    between atoms: C1_4  and  O1_67 
REMARK       I    between atoms: O2_6  and  C2_60 
REMARK       I    between atoms: O2_6  and  S_64 
REMARK       I    between atoms: C5_7  and  C6_41 
REMARK       I    between atoms: C6_9  and  C5_36 
REMARK       I    between atoms: N_10  and  C2_26 
REMARK       I    between atoms: N_10  and  S1_14 
REMARK       I    between atoms: O2_12  and  C2_39 
REMARK       I    between atoms: O2_12  and  S_34 
REMARK       I    between atoms: C3_13  and  O3_44 
REMARK       I    between atoms: S1_14  and  O1S_57 
REMARK       I    between atoms: S1_14  and  O2S_48 
REMARK       I    between atoms: S1_14  and  O3S_38 
REMARK       I    between atoms: C6_16  and  C5_68 
REMARK       I    between atoms: C4_17  and  O4_62 
REMARK       I    between atoms: N_21  and  C2_65 
REMARK       I    between atoms: N_21  and  S1_69 
REMARK       I    between atoms: C3_25  and  O3_30 
REMARK       I    between atoms: O3S_29  and  S1_69 
REMARK       I    between atoms: O4_31  and  C1_42 
REMARK       I    between atoms: O4_31  and  C4_63 
REMARK       I    between atoms: S2_35  and  O6_49 
REMARK       I    between atoms: O1_37  and  C1_61 
REMARK       I    between atoms: O2S_45  and  S1_69 
REMARK       I    between atoms: O3_46  and  C3_55 
REMARK       I    between atoms: C5_47  and  C6_66 
REMARK       I    between atoms: O6_49  and  C6_66 
REMARK       I    between atoms: O1S_52  and  S1_69 
REMARK       I    between atoms: C1_54  and  O4_62 
REMARK       I    between atoms: C4_59  and  O1_67 
ROOT
ATOM      1  C3  UAP d 901     -25.152  79.310  24.282  0.00  0.00     0.086 C 
ATOM      2  O1S UAP d 901     -23.781  82.627  27.246  0.00  0.00    -0.572 OA
ATOM      3  C6  UAP d 901     -23.435  78.796  21.086  0.00  0.00     0.233 C 
ATOM      4  O2  UAP d 901     -24.481  81.534  24.931  0.00  0.00    -0.244 OA
ATOM      5  O3  UAP d 901     -26.358  78.633  24.562  0.00  0.00    -0.389 OA
ATOM      6  O61 UAP d 901     -23.329  77.549  21.123  0.00  0.00    -0.642 OA
ATOM      7  O5  UAP d 901     -24.139  80.766  22.073  0.00  0.00    -0.311 OA
ATOM      8  O2S UAP d 901     -25.300  80.760  27.333  0.00  0.00    -0.572 OA
ATOM      9  S   UAP d 901     -24.926  81.974  26.584  0.00  0.00     0.252 S 
ATOM     10  C5  UAP d 901     -24.031  79.429  22.097  0.00  0.00     0.147 C 
ATOM     11  C2  UAP d 901     -25.406  80.810  24.125  0.00  0.00     0.135 C 
ATOM     12  O62 UAP d 901     -22.985  79.462  20.129  0.00  0.00    -0.642 OA
ATOM     13  O3S UAP d 901     -26.071  82.903  26.551  0.00  0.00    -0.572 OA
ATOM     14  C4  UAP d 901     -24.506  78.713  23.132  0.00  0.00    -0.034 C 
ATOM     15  C1  UAP d 901     -25.317  81.289  22.683  0.00  0.00     0.167 C 
ATOM     16  H   UAP d 901     -24.474  79.206  25.104  0.00  0.00     0.093 H 
ATOM     17  H   UAP d 901     -26.966  78.733  23.812  0.00  0.00     0.210 HD
ATOM     18  H   UAP d 901     -26.411  80.990  24.445  0.00  0.00     0.097 H 
ATOM     19  H   UAP d 901     -24.405  77.686  23.104  0.00  0.00     0.085 H 
ATOM     20  H   UAP d 901     -25.256  82.357  22.656  0.00  0.00     0.134 H 
ATOM     21  O1S IDS d 903     -34.289  86.110  15.184  0.00  0.00    -0.572 OA
ATOM     22  O2  IDS d 903     -32.870  84.257  16.431  0.00  0.00    -0.244 OA
ATOM     23  O5  IDS d 903     -32.623  81.373  18.547  0.00  0.00    -0.340 OA
ATOM     24  C6  IDS d 903     -31.394  80.805  20.489  0.00  0.00     0.206 C 
ATOM     25  O2S IDS d 903     -34.214  86.224  17.593  0.00  0.00    -0.572 OA
ATOM     26  C3  IDS d 903     -31.070  83.293  17.648  0.00  0.00     0.094 C 
ATOM     27  O3S IDS d 903     -32.273  86.826  16.295  0.00  0.00    -0.572 OA
ATOM     28  O3  IDS d 903     -30.305  84.457  17.426  0.00  0.00    -0.390 OA
ATOM     29  O61 IDS d 903     -30.834  81.086  21.565  0.00  0.00    -0.646 OA
ATOM     30  C1  IDS d 903     -33.353  82.363  17.807  0.00  0.00     0.161 C 
ATOM     31  C4  IDS d 903     -30.700  82.695  19.012  0.00  0.00     0.103 C 
ATOM     32  C2  IDS d 903     -32.536  83.656  17.677  0.00  0.00     0.134 C 
ATOM     33  S   IDS d 903     -33.441  85.923  16.375  0.00  0.00     0.252 S 
ATOM     34  C5  IDS d 903     -31.892  81.945  19.621  0.00  0.00     0.152 C 
ATOM     35  O62 IDS d 903     -31.571  79.630  20.096  0.00  0.00    -0.646 OA
ATOM     36  H   IDS d 903     -30.877  82.589  16.867  0.00  0.00     0.091 H 
ATOM     37  H   IDS d 903     -30.478  85.097  18.133  0.00  0.00     0.210 HD
ATOM     38  H   IDS d 903     -33.565  81.965  16.836  0.00  0.00     0.133 H 
ATOM     39  H   IDS d 903     -30.412  83.493  19.663  0.00  0.00     0.092 H 
ATOM     40  H   IDS d 903     -32.740  84.320  18.491  0.00  0.00     0.097 H 
ATOM     41  H   IDS d 903     -32.487  82.615  20.207  0.00  0.00     0.104 H 
ATOM     42  O6  SGN d 902     -26.085  84.386  21.158  0.00  0.00    -0.254 OA
ATOM     43  C1  SGN d 902     -28.361  82.330  18.524  0.00  0.00     0.150 C 
ATOM     44  C5  SGN d 902     -27.698  82.647  20.831  0.00  0.00     0.091 C 
ATOM     45  N   SGN d 902     -27.817  80.258  17.375  0.00  0.00    -0.210 NA
ATOM     46  S1  SGN d 902     -27.665  80.625  15.652  0.00  0.00     0.156 S 
ATOM     47  C4  SGN d 902     -26.655  81.533  20.711  0.00  0.00     0.095 C 
ATOM     48  O5S SGN d 902     -25.270  86.668  22.216  0.00  0.00    -0.572 OA
ATOM     49  C2  SGN d 902     -27.336  81.211  18.355  0.00  0.00     0.081 C 
ATOM     50  S2  SGN d 902     -24.903  85.240  22.151  0.00  0.00     0.251 S 
ATOM     51  O3S SGN d 902     -28.134  82.000  15.397  0.00  0.00    -0.296 OA
ATOM     52  C6  SGN d 902     -27.196  83.734  21.771  0.00  0.00     0.067 C 
ATOM     53  O3  SGN d 902     -26.165  79.487  19.548  0.00  0.00    -0.391 OA
ATOM     54  O2S SGN d 902     -26.252  80.508  15.250  0.00  0.00    -0.296 OA
ATOM     55  O6S SGN d 902     -24.898  84.664  23.510  0.00  0.00    -0.572 OA
ATOM     56  C3  SGN d 902     -27.127  80.507  19.690  0.00  0.00     0.083 C 
ATOM     57  O5  SGN d 902     -27.906  83.236  19.538  0.00  0.00    -0.349 OA
ATOM     58  O1S SGN d 902     -28.480  79.673  14.875  0.00  0.00    -0.296 OA
ATOM     59  O4S SGN d 902     -23.563  85.098  21.551  0.00  0.00    -0.572 OA
ATOM     60  O4  SGN d 902     -26.490  80.890  21.975  0.00  0.00    -0.348 OA
ATOM     61  O1  SGN d 902     -29.633  81.761  18.838  0.00  0.00    -0.348 OA
ATOM     62  H   SGN d 902     -28.469  82.885  17.616  0.00  0.00     0.131 H 
ATOM     63  H   SGN d 902     -28.607  82.229  21.210  0.00  0.00     0.090 H 
ATOM     64  H   SGN d 902     -28.810  80.116  17.562  0.00  0.00     0.140 HD
ATOM     65  H   SGN d 902     -25.723  81.956  20.398  0.00  0.00     0.091 H 
ATOM     66  H   SGN d 902     -26.408  81.625  18.021  0.00  0.00     0.076 H 
ATOM     67  H   SGN d 902     -29.064  82.079  15.660  0.00  0.00     0.231 HD
ATOM     68  H   SGN d 902     -27.977  84.444  21.950  0.00  0.00     0.080 H 
ATOM     69  H   SGN d 902     -26.900  83.303  22.705  0.00  0.00     0.080 H 
ATOM     70  H   SGN d 902     -26.037  79.043  20.401  0.00  0.00     0.210 HD
ATOM     71  H   SGN d 902     -25.941  79.604  15.417  0.00  0.00     0.231 HD
ATOM     72  H   SGN d 902     -28.044  80.065  20.018  0.00  0.00     0.089 H 
ATOM     73  H   SGN d 902     -28.170  78.769  15.044  0.00  0.00     0.231 HD
ATOM     74  O4S SGN d 904     -35.060  79.935  13.763  0.00  0.00    -0.572 OA
ATOM     75  O5S SGN d 904     -36.202  81.905  12.972  0.00  0.00    -0.572 OA
ATOM     76  C3  SGN d 904     -36.029  81.309  19.767  0.00  0.00     0.083 C 
ATOM     77  N   SGN d 904     -37.696  80.036  20.963  0.00  0.00    -0.210 NA
ATOM     78  O5  SGN d 904     -37.901  81.552  17.640  0.00  0.00    -0.350 OA
ATOM     79  O6S SGN d 904     -34.125  82.125  14.168  0.00  0.00    -0.572 OA
ATOM     80  O3S SGN d 904     -38.382  77.669  20.054  0.00  0.00    -0.296 OA
ATOM     81  O4  SGN d 904     -34.549  82.686  18.512  0.00  0.00    -0.348 OA
ATOM     82  S2  SGN d 904     -35.374  81.347  14.054  0.00  0.00     0.251 S 
ATOM     83  O1  SGN d 904     -38.755  82.293  19.707  0.00  0.00    -0.369 OA
ATOM     84  O3  SGN d 904     -34.992  80.584  20.389  0.00  0.00    -0.391 OA
ATOM     85  O2S SGN d 904     -38.641  78.047  22.427  0.00  0.00    -0.296 OA
ATOM     86  C5  SGN d 904     -36.770  82.428  17.666  0.00  0.00     0.091 C 
ATOM     87  O6  SGN d 904     -36.260  81.451  15.569  0.00  0.00    -0.254 OA
ATOM     88  O1S SGN d 904     -40.159  79.085  20.859  0.00  0.00    -0.296 OA
ATOM     89  C1  SGN d 904     -38.370  81.154  18.932  0.00  0.00     0.147 C 
ATOM     90  C4  SGN d 904     -35.603  81.737  18.371  0.00  0.00     0.095 C 
ATOM     91  C2  SGN d 904     -37.247  80.414  19.647  0.00  0.00     0.081 C 
ATOM     92  C6  SGN d 904     -36.391  82.710  16.225  0.00  0.00     0.067 C 
ATOM     93  S1  SGN d 904     -38.770  78.648  21.085  0.00  0.00     0.156 S 
ATOM     94  H   SGN d 904     -36.253  82.176  20.354  0.00  0.00     0.089 H 
ATOM     95  H   SGN d 904     -38.185  80.838  21.362  0.00  0.00     0.140 HD
ATOM     96  H   SGN d 904     -37.468  77.383  20.207  0.00  0.00     0.231 HD
ATOM     97  H   SGN d 904     -39.470  82.766  19.254  0.00  0.00     0.212 HD
ATOM     98  H   SGN d 904     -34.786  79.797  19.862  0.00  0.00     0.210 HD
ATOM     99  H   SGN d 904     -37.724  77.762  22.567  0.00  0.00     0.231 HD
ATOM    100  H   SGN d 904     -36.999  83.333  18.188  0.00  0.00     0.090 H 
ATOM    101  H   SGN d 904     -40.234  79.479  19.975  0.00  0.00     0.231 HD
ATOM    102  H   SGN d 904     -39.225  80.522  18.816  0.00  0.00     0.131 H 
ATOM    103  H   SGN d 904     -35.293  80.883  17.806  0.00  0.00     0.091 H 
ATOM    104  H   SGN d 904     -36.986  79.542  19.085  0.00  0.00     0.076 H 
ATOM    105  H   SGN d 904     -35.463  83.242  16.187  0.00  0.00     0.080 H 
ATOM    106  H   SGN d 904     -37.136  83.311  15.748  0.00  0.00     0.080 H 
ENDROOT
TORSDOF 33
ENDMDL
MODEL 67
REMARK VINA RESULT:      -6.4      4.207      9.566
REMARK  0 active torsions:
REMARK  status: ('A' for Active; 'I' for Inactive)
REMARK       I    between atoms: C3_1  and  O3_18 
REMARK       I    between atoms: O6_3  and  C6_41 
REMARK       I    between atoms: O6_3  and  S2_27 
REMARK       I    between atoms: C1_4  and  O1_67 
REMARK       I    between atoms: O2_6  and  C2_60 
REMARK       I    between atoms: O2_6  and  S_64 
REMARK       I    between atoms: C5_7  and  C6_41 
REMARK       I    between atoms: C6_9  and  C5_36 
REMARK       I    between atoms: N_10  and  C2_26 
REMARK       I    between atoms: N_10  and  S1_14 
REMARK       I    between atoms: O2_12  and  C2_39 
REMARK       I    between atoms: O2_12  and  S_34 
REMARK       I    between atoms: C3_13  and  O3_44 
REMARK       I    between atoms: S1_14  and  O1S_57 
REMARK       I    between atoms: S1_14  and  O2S_48 
REMARK       I    between atoms: S1_14  and  O3S_38 
REMARK       I    between atoms: C6_16  and  C5_68 
REMARK       I    between atoms: C4_17  and  O4_62 
REMARK       I    between atoms: N_21  and  C2_65 
REMARK       I    between atoms: N_21  and  S1_69 
REMARK       I    between atoms: C3_25  and  O3_30 
REMARK       I    between atoms: O3S_29  and  S1_69 
REMARK       I    between atoms: O4_31  and  C1_42 
REMARK       I    between atoms: O4_31  and  C4_63 
REMARK       I    between atoms: S2_35  and  O6_49 
REMARK       I    between atoms: O1_37  and  C1_61 
REMARK       I    between atoms: O2S_45  and  S1_69 
REMARK       I    between atoms: O3_46  and  C3_55 
REMARK       I    between atoms: C5_47  and  C6_66 
REMARK       I    between atoms: O6_49  and  C6_66 
REMARK       I    between atoms: O1S_52  and  S1_69 
REMARK       I    between atoms: C1_54  and  O4_62 
REMARK       I    between atoms: C4_59  and  O1_67 
ROOT
ATOM      1  C3  UAP d 901     -23.804  86.845  20.485  0.00  0.00     0.086 C 
ATOM      2  O1S UAP d 901     -21.555  88.944  16.992  0.00  0.00    -0.572 OA
ATOM      3  C6  UAP d 901     -22.925  83.447  21.535  0.00  0.00     0.233 C 
ATOM      4  O2  UAP d 901     -22.851  87.017  18.275  0.00  0.00    -0.244 OA
ATOM      5  O3  UAP d 901     -24.954  87.478  21.004  0.00  0.00    -0.389 OA
ATOM      6  O61 UAP d 901     -22.898  83.628  22.774  0.00  0.00    -0.642 OA
ATOM      7  O5  UAP d 901     -23.243  84.288  19.403  0.00  0.00    -0.311 OA
ATOM      8  O2S UAP d 901     -23.133  89.624  18.679  0.00  0.00    -0.572 OA
ATOM      9  S   UAP d 901     -22.864  88.652  17.604  0.00  0.00     0.252 S 
ATOM     10  C5  UAP d 901     -23.223  84.469  20.732  0.00  0.00     0.147 C 
ATOM     11  C2  UAP d 901     -23.987  86.546  18.996  0.00  0.00     0.135 C 
ATOM     12  O62 UAP d 901     -22.668  82.331  21.033  0.00  0.00    -0.642 OA
ATOM     13  O3S UAP d 901     -23.920  88.750  16.578  0.00  0.00    -0.572 OA
ATOM     14  C4  UAP d 901     -23.488  85.672  21.273  0.00  0.00    -0.034 C 
ATOM     15  C1  UAP d 901     -24.207  85.068  18.701  0.00  0.00     0.167 C 
ATOM     16  H   UAP d 901     -22.961  87.500  20.557  0.00  0.00     0.093 H 
ATOM     17  H   UAP d 901     -25.712  86.877  20.934  0.00  0.00     0.210 HD
ATOM     18  H   UAP d 901     -24.873  87.056  18.683  0.00  0.00     0.097 H 
ATOM     19  H   UAP d 901     -23.465  85.763  22.300  0.00  0.00     0.085 H 
ATOM     20  H   UAP d 901     -24.082  84.883  17.654  0.00  0.00     0.134 H 
ATOM     21  O1S IDS d 903     -34.345  79.188  13.947  0.00  0.00    -0.572 OA
ATOM     22  O2  IDS d 903     -32.801  80.326  15.769  0.00  0.00    -0.244 OA
ATOM     23  O5  IDS d 903     -32.257  82.706  18.395  0.00  0.00    -0.340 OA
ATOM     24  C6  IDS d 903     -30.648  84.382  18.847  0.00  0.00     0.206 C 
ATOM     25  O2S IDS d 903     -33.699  81.480  13.558  0.00  0.00    -0.572 OA
ATOM     26  C3  IDS d 903     -30.834  81.228  16.754  0.00  0.00     0.094 C 
ATOM     27  O3S IDS d 903     -32.081  79.709  13.304  0.00  0.00    -0.572 OA
ATOM     28  O3  IDS d 903     -30.065  80.683  15.704  0.00  0.00    -0.390 OA
ATOM     29  O61 IDS d 903     -29.833  85.256  18.497  0.00  0.00    -0.646 OA
ATOM     30  C1  IDS d 903     -33.073  82.020  17.432  0.00  0.00     0.161 C 
ATOM     31  C4  IDS d 903     -30.195  82.543  17.221  0.00  0.00     0.103 C 
ATOM     32  C2  IDS d 903     -32.224  81.535  16.249  0.00  0.00     0.134 C 
ATOM     33  S   IDS d 903     -33.255  80.172  14.073  0.00  0.00     0.252 S 
ATOM     34  C5  IDS d 903     -31.258  83.500  17.774  0.00  0.00     0.152 C 
ATOM     35  O62 IDS d 903     -30.991  84.203  20.038  0.00  0.00    -0.646 OA
ATOM     36  H   IDS d 903     -30.877  80.527  17.560  0.00  0.00     0.091 H 
ATOM     37  H   IDS d 903     -30.025  81.317  14.971  0.00  0.00     0.210 HD
ATOM     38  H   IDS d 903     -33.534  81.186  17.919  0.00  0.00     0.133 H 
ATOM     39  H   IDS d 903     -29.709  82.997  16.383  0.00  0.00     0.092 H 
ATOM     40  H   IDS d 903     -32.186  82.275  15.477  0.00  0.00     0.097 H 
ATOM     41  H   IDS d 903     -31.652  84.107  16.986  0.00  0.00     0.104 H 
ATOM     42  O6  SGN d 902     -25.102  83.347  15.745  0.00  0.00    -0.254 OA
ATOM     43  C1  SGN d 902     -28.065  81.597  17.865  0.00  0.00     0.150 C 
ATOM     44  C5  SGN d 902     -26.859  83.630  17.346  0.00  0.00     0.091 C 
ATOM     45  N   SGN d 902     -27.948  80.650  20.101  0.00  0.00    -0.210 NA
ATOM     46  S1  SGN d 902     -28.181  78.902  19.955  0.00  0.00     0.156 S 
ATOM     47  C4  SGN d 902     -25.952  83.433  18.561  0.00  0.00     0.095 C 
ATOM     48  O5S SGN d 902     -23.909  83.873  13.444  0.00  0.00    -0.572 OA
ATOM     49  C2  SGN d 902     -27.187  81.357  19.091  0.00  0.00     0.081 C 
ATOM     50  S2  SGN d 902     -23.664  83.923  14.899  0.00  0.00     0.251 S 
ATOM     51  O3S SGN d 902     -28.603  78.574  18.581  0.00  0.00    -0.296 OA
ATOM     52  C6  SGN d 902     -26.079  84.276  16.209  0.00  0.00     0.067 C 
ATOM     53  O3  SGN d 902     -25.887  82.481  20.768  0.00  0.00    -0.391 OA
ATOM     54  O2S SGN d 902     -26.912  78.213  20.255  0.00  0.00    -0.296 OA
ATOM     55  O6S SGN d 902     -23.379  85.311  15.309  0.00  0.00    -0.572 OA
ATOM     56  C3  SGN d 902     -26.718  82.694  19.650  0.00  0.00     0.083 C 
ATOM     57  O5  SGN d 902     -27.325  82.349  16.894  0.00  0.00    -0.349 OA
ATOM     58  O1S SGN d 902     -29.218  78.466  20.908  0.00  0.00    -0.296 OA
ATOM     59  O4S SGN d 902     -22.516  83.062  15.240  0.00  0.00    -0.572 OA
ATOM     60  O4  SGN d 902     -25.537  84.704  19.065  0.00  0.00    -0.348 OA
ATOM     61  O1  SGN d 902     -29.264  82.263  18.267  0.00  0.00    -0.348 OA
ATOM     62  H   SGN d 902     -28.347  80.669  17.413  0.00  0.00     0.131 H 
ATOM     63  H   SGN d 902     -27.680  84.258  17.626  0.00  0.00     0.090 H 
ATOM     64  H   SGN d 902     -28.876  81.072  20.122  0.00  0.00     0.140 HD
ATOM     65  H   SGN d 902     -25.093  82.864  18.271  0.00  0.00     0.091 H 
ATOM     66  H   SGN d 902     -26.338  80.769  18.811  0.00  0.00     0.076 H 
ATOM     67  H   SGN d 902     -29.438  79.026  18.382  0.00  0.00     0.231 HD
ATOM     68  H   SGN d 902     -26.746  84.528  15.410  0.00  0.00     0.080 H 
ATOM     69  H   SGN d 902     -25.601  85.170  16.554  0.00  0.00     0.080 H 
ATOM     70  H   SGN d 902     -25.592  83.336  21.119  0.00  0.00     0.210 HD
ATOM     71  H   SGN d 902     -26.633  78.428  21.159  0.00  0.00     0.231 HD
ATOM     72  H   SGN d 902     -27.560  83.277  19.959  0.00  0.00     0.089 H 
ATOM     73  H   SGN d 902     -28.938  78.683  21.812  0.00  0.00     0.231 HD
ATOM     74  O4S SGN d 904     -35.842  78.834  20.142  0.00  0.00    -0.572 OA
ATOM     75  O5S SGN d 904     -37.002  78.058  18.176  0.00  0.00    -0.572 OA
ATOM     76  C3  SGN d 904     -35.278  84.657  17.984  0.00  0.00     0.083 C 
ATOM     77  N   SGN d 904     -36.698  86.358  18.940  0.00  0.00    -0.210 NA
ATOM     78  O5  SGN d 904     -37.577  82.991  17.813  0.00  0.00    -0.350 OA
ATOM     79  O6S SGN d 904     -34.692  78.716  18.020  0.00  0.00    -0.572 OA
ATOM     80  O3S SGN d 904     -37.737  85.959  21.320  0.00  0.00    -0.296 OA
ATOM     81  O4  SGN d 904     -34.045  82.925  16.914  0.00  0.00    -0.348 OA
ATOM     82  S2  SGN d 904     -35.983  78.991  18.681  0.00  0.00     0.251 S 
ATOM     83  O1  SGN d 904     -37.868  85.076  16.754  0.00  0.00    -0.369 OA
ATOM     84  O3  SGN d 904     -34.175  85.123  18.728  0.00  0.00    -0.391 OA
ATOM     85  O2S SGN d 904     -37.404  88.255  20.643  0.00  0.00    -0.296 OA
ATOM     86  C5  SGN d 904     -36.415  82.642  17.053  0.00  0.00     0.091 C 
ATOM     87  O6  SGN d 904     -36.479  80.638  18.315  0.00  0.00    -0.254 OA
ATOM     88  O1S SGN d 904     -39.175  86.940  19.653  0.00  0.00    -0.296 OA
ATOM     89  C1  SGN d 904     -37.754  84.397  18.008  0.00  0.00     0.147 C 
ATOM     90  C4  SGN d 904     -35.164  83.156  17.767  0.00  0.00     0.095 C 
ATOM     91  C2  SGN d 904     -36.548  84.936  18.765  0.00  0.00     0.081 C 
ATOM     92  C6  SGN d 904     -36.367  81.129  16.980  0.00  0.00     0.067 C 
ATOM     93  S1  SGN d 904     -37.805  86.907  20.193  0.00  0.00     0.156 S 
ATOM     94  H   SGN d 904     -35.299  85.154  17.037  0.00  0.00     0.089 H 
ATOM     95  H   SGN d 904     -37.025  86.743  18.054  0.00  0.00     0.140 HD
ATOM     96  H   SGN d 904     -36.834  85.941  21.673  0.00  0.00     0.231 HD
ATOM     97  H   SGN d 904     -38.637  84.734  16.271  0.00  0.00     0.212 HD
ATOM     98  H   SGN d 904     -34.152  84.675  19.588  0.00  0.00     0.210 HD
ATOM     99  H   SGN d 904     -36.501  88.223  20.997  0.00  0.00     0.231 HD
ATOM    100  H   SGN d 904     -36.454  83.074  16.075  0.00  0.00     0.090 H 
ATOM    101  H   SGN d 904     -39.430  86.051  19.361  0.00  0.00     0.231 HD
ATOM    102  H   SGN d 904     -38.653  84.564  18.563  0.00  0.00     0.131 H 
ATOM    103  H   SGN d 904     -35.054  82.657  18.707  0.00  0.00     0.091 H 
ATOM    104  H   SGN d 904     -36.485  84.454  19.718  0.00  0.00     0.076 H 
ATOM    105  H   SGN d 904     -35.440  80.811  16.549  0.00  0.00     0.080 H 
ATOM    106  H   SGN d 904     -37.161  80.753  16.370  0.00  0.00     0.080 H 
ENDROOT
TORSDOF 33
ENDMDL
MODEL 68
REMARK VINA RESULT:      -6.4      5.191      7.834
REMARK  0 active torsions:
REMARK  status: ('A' for Active; 'I' for Inactive)
REMARK       I    between atoms: C3_1  and  O3_18 
REMARK       I    between atoms: O6_3  and  C6_41 
REMARK       I    between atoms: O6_3  and  S2_27 
REMARK       I    between atoms: C1_4  and  O1_67 
REMARK       I    between atoms: O2_6  and  C2_60 
REMARK       I    between atoms: O2_6  and  S_64 
REMARK       I    between atoms: C5_7  and  C6_41 
REMARK       I    between atoms: C6_9  and  C5_36 
REMARK       I    between atoms: N_10  and  C2_26 
REMARK       I    between atoms: N_10  and  S1_14 
REMARK       I    between atoms: O2_12  and  C2_39 
REMARK       I    between atoms: O2_12  and  S_34 
REMARK       I    between atoms: C3_13  and  O3_44 
REMARK       I    between atoms: S1_14  and  O1S_57 
REMARK       I    between atoms: S1_14  and  O2S_48 
REMARK       I    between atoms: S1_14  and  O3S_38 
REMARK       I    between atoms: C6_16  and  C5_68 
REMARK       I    between atoms: C4_17  and  O4_62 
REMARK       I    between atoms: N_21  and  C2_65 
REMARK       I    between atoms: N_21  and  S1_69 
REMARK       I    between atoms: C3_25  and  O3_30 
REMARK       I    between atoms: O3S_29  and  S1_69 
REMARK       I    between atoms: O4_31  and  C1_42 
REMARK       I    between atoms: O4_31  and  C4_63 
REMARK       I    between atoms: S2_35  and  O6_49 
REMARK       I    between atoms: O1_37  and  C1_61 
REMARK       I    between atoms: O2S_45  and  S1_69 
REMARK       I    between atoms: O3_46  and  C3_55 
REMARK       I    between atoms: C5_47  and  C6_66 
REMARK       I    between atoms: O6_49  and  C6_66 
REMARK       I    between atoms: O1S_52  and  S1_69 
REMARK       I    between atoms: C1_54  and  O4_62 
REMARK       I    between atoms: C4_59  and  O1_67 
ROOT
ATOM      1  C3  UAP d 901     -35.603  77.963  20.447  0.00  0.00     0.086 C 
ATOM      2  O1S UAP d 901     -35.883  73.761  22.429  0.00  0.00    -0.572 OA
ATOM      3  C6  UAP d 901     -34.866  78.330  16.877  0.00  0.00     0.233 C 
ATOM      4  O2  UAP d 901     -34.877  75.718  20.945  0.00  0.00    -0.244 OA
ATOM      5  O3  UAP d 901     -35.624  79.094  21.292  0.00  0.00    -0.389 OA
ATOM      6  O61 UAP d 901     -35.743  79.175  16.584  0.00  0.00    -0.642 OA
ATOM      7  O5  UAP d 901     -33.842  76.986  18.456  0.00  0.00    -0.311 OA
ATOM      8  O2S UAP d 901     -36.406  76.016  23.092  0.00  0.00    -0.572 OA
ATOM      9  S   UAP d 901     -35.360  75.135  22.542  0.00  0.00     0.252 S 
ATOM     10  C5  UAP d 901     -34.770  77.899  18.135  0.00  0.00     0.147 C 
ATOM     11  C2  UAP d 901     -34.420  77.060  20.796  0.00  0.00     0.135 C 
ATOM     12  O62 UAP d 901     -34.086  77.874  16.014  0.00  0.00    -0.642 OA
ATOM     13  O3S UAP d 901     -34.190  75.144  23.440  0.00  0.00    -0.572 OA
ATOM     14  C4  UAP d 901     -35.617  78.383  19.061  0.00  0.00    -0.034 C 
ATOM     15  C1  UAP d 901     -33.298  77.110  19.768  0.00  0.00     0.167 C 
ATOM     16  H   UAP d 901     -36.484  77.376  20.599  0.00  0.00     0.093 H 
ATOM     17  H   UAP d 901     -34.822  79.620  21.146  0.00  0.00     0.210 HD
ATOM     18  H   UAP d 901     -34.010  77.424  21.714  0.00  0.00     0.097 H 
ATOM     19  H   UAP d 901     -36.312  79.088  18.769  0.00  0.00     0.085 H 
ATOM     20  H   UAP d 901     -32.623  76.294  19.925  0.00  0.00     0.134 H 
ATOM     21  O1S IDS d 903     -21.418  81.285  20.947  0.00  0.00    -0.572 OA
ATOM     22  O2  IDS d 903     -24.037  81.410  20.586  0.00  0.00    -0.244 OA
ATOM     23  O5  IDS d 903     -27.271  82.718  21.412  0.00  0.00    -0.340 OA
ATOM     24  C6  IDS d 903     -29.381  81.788  21.947  0.00  0.00     0.206 C 
ATOM     25  O2S IDS d 903     -22.810  80.394  22.705  0.00  0.00    -0.572 OA
ATOM     26  C3  IDS d 903     -26.248  80.661  20.138  0.00  0.00     0.094 C 
ATOM     27  O3S IDS d 903     -22.587  79.203  20.619  0.00  0.00    -0.572 OA
ATOM     28  O3  IDS d 903     -25.734  79.416  19.717  0.00  0.00    -0.390 OA
ATOM     29  O61 IDS d 903     -30.108  80.906  22.440  0.00  0.00    -0.646 OA
ATOM     30  C1  IDS d 903     -25.841  82.658  21.533  0.00  0.00     0.161 C 
ATOM     31  C4  IDS d 903     -27.621  80.449  20.789  0.00  0.00     0.103 C 
ATOM     32  C2  IDS d 903     -25.324  81.258  21.173  0.00  0.00     0.134 C 
ATOM     33  S   IDS d 903     -22.654  80.539  21.246  0.00  0.00     0.252 S 
ATOM     34  C5  IDS d 903     -27.891  81.520  21.854  0.00  0.00     0.152 C 
ATOM     35  O62 IDS d 903     -29.821  82.885  21.533  0.00  0.00    -0.646 OA
ATOM     36  H   IDS d 903     -26.331  81.312  19.294  0.00  0.00     0.091 H 
ATOM     37  H   IDS d 903     -25.657  78.823  20.480  0.00  0.00     0.210 HD
ATOM     38  H   IDS d 903     -25.420  83.385  20.870  0.00  0.00     0.133 H 
ATOM     39  H   IDS d 903     -27.631  79.482  21.247  0.00  0.00     0.092 H 
ATOM     40  H   IDS d 903     -25.280  80.633  22.040  0.00  0.00     0.097 H 
ATOM     41  H   IDS d 903     -27.521  81.195  22.803  0.00  0.00     0.104 H 
ATOM     42  O6  SGN d 902     -30.027  75.768  19.757  0.00  0.00    -0.254 OA
ATOM     43  C1  SGN d 902     -28.694  79.476  18.853  0.00  0.00     0.150 C 
ATOM     44  C5  SGN d 902     -30.178  78.116  20.199  0.00  0.00     0.091 C 
ATOM     45  N   SGN d 902     -29.610  81.043  17.237  0.00  0.00    -0.210 NA
ATOM     46  S1  SGN d 902     -28.424  81.228  15.938  0.00  0.00     0.156 S 
ATOM     47  C4  SGN d 902     -31.326  78.353  19.217  0.00  0.00     0.095 C 
ATOM     48  O5S SGN d 902     -29.576  73.264  20.476  0.00  0.00    -0.572 OA
ATOM     49  C2  SGN d 902     -29.809  79.743  17.845  0.00  0.00     0.081 C 
ATOM     50  S2  SGN d 902     -30.635  74.118  19.905  0.00  0.00     0.251 S 
ATOM     51  O3S SGN d 902     -27.160  80.575  16.327  0.00  0.00    -0.296 OA
ATOM     52  C6  SGN d 902     -30.275  76.717  20.792  0.00  0.00     0.067 C 
ATOM     53  O3  SGN d 902     -32.193  79.937  17.629  0.00  0.00    -0.391 OA
ATOM     54  O2S SGN d 902     -28.942  80.598  14.710  0.00  0.00    -0.296 OA
ATOM     55  O6S SGN d 902     -31.815  74.110  20.791  0.00  0.00    -0.572 OA
ATOM     56  C3  SGN d 902     -31.155  79.715  18.557  0.00  0.00     0.083 C 
ATOM     57  O5  SGN d 902     -28.930  78.215  19.494  0.00  0.00    -0.349 OA
ATOM     58  O1S SGN d 902     -28.184  82.662  15.694  0.00  0.00    -0.296 OA
ATOM     59  O4S SGN d 902     -31.016  73.613  18.572  0.00  0.00    -0.572 OA
ATOM     60  O4  SGN d 902     -32.571  78.328  19.917  0.00  0.00    -0.348 OA
ATOM     61  O1  SGN d 902     -28.634  80.555  19.788  0.00  0.00    -0.348 OA
ATOM     62  H   SGN d 902     -27.745  79.419  18.363  0.00  0.00     0.131 H 
ATOM     63  H   SGN d 902     -30.234  78.847  20.979  0.00  0.00     0.090 H 
ATOM     64  H   SGN d 902     -29.334  81.681  17.984  0.00  0.00     0.140 HD
ATOM     65  H   SGN d 902     -31.318  77.584  18.472  0.00  0.00     0.091 H 
ATOM     66  H   SGN d 902     -29.791  78.990  17.086  0.00  0.00     0.076 H 
ATOM     67  H   SGN d 902     -26.818  80.988  17.135  0.00  0.00     0.231 HD
ATOM     68  H   SGN d 902     -29.548  76.603  21.569  0.00  0.00     0.080 H 
ATOM     69  H   SGN d 902     -31.250  76.562  21.206  0.00  0.00     0.080 H 
ATOM     70  H   SGN d 902     -33.047  79.918  18.089  0.00  0.00     0.210 HD
ATOM     71  H   SGN d 902     -29.774  81.026  14.452  0.00  0.00     0.231 HD
ATOM     72  H   SGN d 902     -31.193  80.484  19.299  0.00  0.00     0.089 H 
ATOM     73  H   SGN d 902     -29.017  83.090  15.438  0.00  0.00     0.231 HD
ATOM     74  O4S SGN d 904     -24.186  86.748  19.146  0.00  0.00    -0.572 OA
ATOM     75  O5S SGN d 904     -21.896  86.227  19.691  0.00  0.00    -0.572 OA
ATOM     76  C3  SGN d 904     -26.395  84.411  24.488  0.00  0.00     0.083 C 
ATOM     77  N   SGN d 904     -27.123  85.965  26.186  0.00  0.00    -0.210 NA
ATOM     78  O5  SGN d 904     -24.074  86.024  24.164  0.00  0.00    -0.350 OA
ATOM     79  O6S SGN d 904     -23.464  84.447  19.287  0.00  0.00    -0.572 OA
ATOM     80  O3S SGN d 904     -27.779  88.408  25.477  0.00  0.00    -0.296 OA
ATOM     81  O4  SGN d 904     -25.475  82.911  22.887  0.00  0.00    -0.348 OA
ATOM     82  S2  SGN d 904     -23.296  85.802  19.847  0.00  0.00     0.251 S 
ATOM     83  O1  SGN d 904     -24.412  85.331  26.391  0.00  0.00    -0.369 OA
ATOM     84  O3  SGN d 904     -27.731  84.130  24.137  0.00  0.00    -0.391 OA
ATOM     85  O2S SGN d 904     -28.819  87.532  27.475  0.00  0.00    -0.296 OA
ATOM     86  C5  SGN d 904     -24.070  84.694  23.634  0.00  0.00     0.091 C 
ATOM     87  O6  SGN d 904     -23.702  85.774  21.558  0.00  0.00    -0.254 OA
ATOM     88  O1S SGN d 904     -26.487  88.170  27.498  0.00  0.00    -0.296 OA
ATOM     89  C1  SGN d 904     -24.872  86.186  25.341  0.00  0.00     0.147 C 
ATOM     90  C4  SGN d 904     -25.496  84.284  23.268  0.00  0.00     0.095 C 
ATOM     91  C2  SGN d 904     -26.314  85.836  25.000  0.00  0.00     0.081 C 
ATOM     92  C6  SGN d 904     -23.215  84.716  22.381  0.00  0.00     0.067 C 
ATOM     93  S1  SGN d 904     -27.573  87.591  26.686  0.00  0.00     0.156 S 
ATOM     94  H   SGN d 904     -26.076  83.720  25.240  0.00  0.00     0.089 H 
ATOM     95  H   SGN d 904     -26.607  85.540  26.957  0.00  0.00     0.140 HD
ATOM     96  H   SGN d 904     -28.494  88.025  24.946  0.00  0.00     0.231 HD
ATOM     97  H   SGN d 904     -23.493  85.553  26.610  0.00  0.00     0.212 HD
ATOM     98  H   SGN d 904     -28.025  84.754  23.456  0.00  0.00     0.210 HD
ATOM     99  H   SGN d 904     -29.527  87.150  26.933  0.00  0.00     0.231 HD
ATOM    100  H   SGN d 904     -23.685  83.998  24.350  0.00  0.00     0.090 H 
ATOM    101  H   SGN d 904     -25.673  88.204  26.972  0.00  0.00     0.231 HD
ATOM    102  H   SGN d 904     -24.798  87.200  25.677  0.00  0.00     0.131 H 
ATOM    103  H   SGN d 904     -25.861  84.907  22.479  0.00  0.00     0.091 H 
ATOM    104  H   SGN d 904     -26.669  86.501  24.241  0.00  0.00     0.076 H 
ATOM    105  H   SGN d 904     -23.297  83.783  21.865  0.00  0.00     0.080 H 
ATOM    106  H   SGN d 904     -22.186  84.869  22.627  0.00  0.00     0.080 H 
ENDROOT
TORSDOF 33
ENDMDL
MODEL 69
REMARK VINA RESULT:      -6.4      4.774      8.744
REMARK  0 active torsions:
REMARK  status: ('A' for Active; 'I' for Inactive)
REMARK       I    between atoms: C3_1  and  O3_18 
REMARK       I    between atoms: O6_3  and  C6_41 
REMARK       I    between atoms: O6_3  and  S2_27 
REMARK       I    between atoms: C1_4  and  O1_67 
REMARK       I    between atoms: O2_6  and  C2_60 
REMARK       I    between atoms: O2_6  and  S_64 
REMARK       I    between atoms: C5_7  and  C6_41 
REMARK       I    between atoms: C6_9  and  C5_36 
REMARK       I    between atoms: N_10  and  C2_26 
REMARK       I    between atoms: N_10  and  S1_14 
REMARK       I    between atoms: O2_12  and  C2_39 
REMARK       I    between atoms: O2_12  and  S_34 
REMARK       I    between atoms: C3_13  and  O3_44 
REMARK       I    between atoms: S1_14  and  O1S_57 
REMARK       I    between atoms: S1_14  and  O2S_48 
REMARK       I    between atoms: S1_14  and  O3S_38 
REMARK       I    between atoms: C6_16  and  C5_68 
REMARK       I    between atoms: C4_17  and  O4_62 
REMARK       I    between atoms: N_21  and  C2_65 
REMARK       I    between atoms: N_21  and  S1_69 
REMARK       I    between atoms: C3_25  and  O3_30 
REMARK       I    between atoms: O3S_29  and  S1_69 
REMARK       I    between atoms: O4_31  and  C1_42 
REMARK       I    between atoms: O4_31  and  C4_63 
REMARK       I    between atoms: S2_35  and  O6_49 
REMARK       I    between atoms: O1_37  and  C1_61 
REMARK       I    between atoms: O2S_45  and  S1_69 
REMARK       I    between atoms: O3_46  and  C3_55 
REMARK       I    between atoms: C5_47  and  C6_66 
REMARK       I    between atoms: O6_49  and  C6_66 
REMARK       I    between atoms: O1S_52  and  S1_69 
REMARK       I    between atoms: C1_54  and  O4_62 
REMARK       I    between atoms: C4_59  and  O1_67 
ROOT
ATOM      1  C3  UAP d 901     -34.780  79.275  15.948  0.00  0.00     0.086 C 
ATOM      2  O1S UAP d 901     -38.462  81.794  17.274  0.00  0.00    -0.572 OA
ATOM      3  C6  UAP d 901     -33.516  76.529  18.018  0.00  0.00     0.233 C 
ATOM      4  O2  UAP d 901     -36.117  80.570  17.482  0.00  0.00    -0.244 OA
ATOM      5  O3  UAP d 901     -34.050  79.715  14.822  0.00  0.00    -0.389 OA
ATOM      6  O61 UAP d 901     -33.375  75.663  17.125  0.00  0.00    -0.642 OA
ATOM      7  O5  UAP d 901     -34.134  78.671  18.639  0.00  0.00    -0.311 OA
ATOM      8  O2S UAP d 901     -37.159  81.577  15.260  0.00  0.00    -0.572 OA
ATOM      9  S   UAP d 901     -37.098  81.822  16.713  0.00  0.00     0.252 S 
ATOM     10  C5  UAP d 901     -33.969  77.739  17.688  0.00  0.00     0.147 C 
ATOM     11  C2  UAP d 901     -34.782  80.351  17.034  0.00  0.00     0.135 C 
ATOM     12  O62 UAP d 901     -33.251  76.283  19.214  0.00  0.00    -0.642 OA
ATOM     13  O3S UAP d 901     -36.489  83.142  16.962  0.00  0.00    -0.572 OA
ATOM     14  C4  UAP d 901     -34.265  78.000  16.402  0.00  0.00    -0.034 C 
ATOM     15  C1  UAP d 901     -33.890  80.012  18.222  0.00  0.00     0.167 C 
ATOM     16  H   UAP d 901     -35.804  79.117  15.682  0.00  0.00     0.093 H 
ATOM     17  H   UAP d 901     -33.124  79.856  15.073  0.00  0.00     0.210 HD
ATOM     18  H   UAP d 901     -34.379  81.239  16.594  0.00  0.00     0.097 H 
ATOM     19  H   UAP d 901     -34.117  77.254  15.704  0.00  0.00     0.085 H 
ATOM     20  H   UAP d 901     -34.115  80.659  19.043  0.00  0.00     0.134 H 
ATOM     21  O1S IDS d 903     -23.424  85.758  22.391  0.00  0.00    -0.572 OA
ATOM     22  O2  IDS d 903     -24.916  84.163  20.898  0.00  0.00    -0.244 OA
ATOM     23  O5  IDS d 903     -26.061  82.997  17.707  0.00  0.00    -0.340 OA
ATOM     24  C6  IDS d 903     -28.172  82.648  16.696  0.00  0.00     0.206 C 
ATOM     25  O2S IDS d 903     -25.234  86.780  21.168  0.00  0.00    -0.572 OA
ATOM     26  C3  IDS d 903     -26.809  82.893  20.223  0.00  0.00     0.094 C 
ATOM     27  O3S IDS d 903     -25.703  85.404  23.092  0.00  0.00    -0.572 OA
ATOM     28  O3  IDS d 903     -27.379  83.075  21.501  0.00  0.00    -0.390 OA
ATOM     29  O61 IDS d 903     -29.375  82.921  16.525  0.00  0.00    -0.646 OA
ATOM     30  C1  IDS d 903     -25.228  83.802  18.557  0.00  0.00     0.161 C 
ATOM     31  C4  IDS d 903     -27.926  82.831  19.173  0.00  0.00     0.103 C 
ATOM     32  C2  IDS d 903     -25.924  84.073  19.898  0.00  0.00     0.134 C 
ATOM     33  S   IDS d 903     -24.812  85.589  21.927  0.00  0.00     0.252 S 
ATOM     34  C5  IDS d 903     -27.431  83.350  17.817  0.00  0.00     0.152 C 
ATOM     35  O62 IDS d 903     -27.548  81.831  15.982  0.00  0.00    -0.646 OA
ATOM     36  H   IDS d 903     -26.240  81.988  20.216  0.00  0.00     0.091 H 
ATOM     37  H   IDS d 903     -27.896  83.895  21.510  0.00  0.00     0.210 HD
ATOM     38  H   IDS d 903     -24.310  83.276  18.720  0.00  0.00     0.133 H 
ATOM     39  H   IDS d 903     -28.740  83.438  19.511  0.00  0.00     0.092 H 
ATOM     40  H   IDS d 903     -26.502  84.972  19.853  0.00  0.00     0.097 H 
ATOM     41  H   IDS d 903     -27.586  84.407  17.750  0.00  0.00     0.104 H 
ATOM     42  O6  SGN d 902     -32.867  81.891  21.036  0.00  0.00    -0.254 OA
ATOM     43  C1  SGN d 902     -29.061  80.906  20.096  0.00  0.00     0.150 C 
ATOM     44  C5  SGN d 902     -31.228  81.644  19.309  0.00  0.00     0.091 C 
ATOM     45  N   SGN d 902     -28.199  78.733  19.427  0.00  0.00    -0.210 NA
ATOM     46  S1  SGN d 902     -27.125  78.165  20.712  0.00  0.00     0.156 S 
ATOM     47  C4  SGN d 902     -31.622  80.206  18.969  0.00  0.00     0.095 C 
ATOM     48  O5S SGN d 902     -34.607  83.300  22.443  0.00  0.00    -0.572 OA
ATOM     49  C2  SGN d 902     -29.407  79.455  19.771  0.00  0.00     0.081 C 
ATOM     50  S2  SGN d 902     -34.533  82.108  21.576  0.00  0.00     0.251 S 
ATOM     51  O3S SGN d 902     -26.890  79.254  21.678  0.00  0.00    -0.296 OA
ATOM     52  C6  SGN d 902     -32.446  82.424  19.782  0.00  0.00     0.067 C 
ATOM     53  O3  SGN d 902     -30.720  78.079  18.305  0.00  0.00    -0.391 OA
ATOM     54  O2S SGN d 902     -27.753  77.025  21.405  0.00  0.00    -0.296 OA
ATOM     55  O6S SGN d 902     -35.408  82.290  20.402  0.00  0.00    -0.572 OA
ATOM     56  C3  SGN d 902     -30.376  79.414  18.597  0.00  0.00     0.083 C 
ATOM     57  O5  SGN d 902     -30.268  81.627  20.377  0.00  0.00    -0.349 OA
ATOM     58  O1S SGN d 902     -25.841  77.740  20.125  0.00  0.00    -0.296 OA
ATOM     59  O4S SGN d 902     -34.963  80.916  22.332  0.00  0.00    -0.572 OA
ATOM     60  O4  SGN d 902     -32.523  80.203  17.860  0.00  0.00    -0.348 OA
ATOM     61  O1  SGN d 902     -28.333  81.472  19.004  0.00  0.00    -0.348 OA
ATOM     62  H   SGN d 902     -28.438  80.962  20.964  0.00  0.00     0.131 H 
ATOM     63  H   SGN d 902     -30.817  82.106  18.435  0.00  0.00     0.090 H 
ATOM     64  H   SGN d 902     -27.646  79.349  18.830  0.00  0.00     0.140 HD
ATOM     65  H   SGN d 902     -32.097  79.761  19.818  0.00  0.00     0.091 H 
ATOM     66  H   SGN d 902     -29.862  78.997  20.625  0.00  0.00     0.076 H 
ATOM     67  H   SGN d 902     -26.477  80.006  21.224  0.00  0.00     0.231 HD
ATOM     68  H   SGN d 902     -32.191  83.458  19.896  0.00  0.00     0.080 H 
ATOM     69  H   SGN d 902     -33.236  82.341  19.064  0.00  0.00     0.080 H 
ATOM     70  H   SGN d 902     -31.338  78.060  17.557  0.00  0.00     0.210 HD
ATOM     71  H   SGN d 902     -27.908  76.307  20.772  0.00  0.00     0.231 HD
ATOM     72  H   SGN d 902     -29.919  79.843  17.731  0.00  0.00     0.089 H 
ATOM     73  H   SGN d 902     -25.997  77.023  19.490  0.00  0.00     0.231 HD
ATOM     74  O4S SGN d 904     -20.712  81.630  18.348  0.00  0.00    -0.572 OA
ATOM     75  O5S SGN d 904     -19.755  83.314  19.783  0.00  0.00    -0.572 OA
ATOM     76  C3  SGN d 904     -24.664  85.622  15.644  0.00  0.00     0.083 C 
ATOM     77  N   SGN d 904     -24.177  86.344  13.392  0.00  0.00    -0.210 NA
ATOM     78  O5  SGN d 904     -21.928  86.091  16.267  0.00  0.00    -0.350 OA
ATOM     79  O6S SGN d 904     -22.042  82.633  20.097  0.00  0.00    -0.572 OA
ATOM     80  O3S SGN d 904     -22.615  84.859  11.891  0.00  0.00    -0.296 OA
ATOM     81  O4  SGN d 904     -25.003  85.063  17.932  0.00  0.00    -0.348 OA
ATOM     82  S2  SGN d 904     -20.981  82.871  19.100  0.00  0.00     0.251 S 
ATOM     83  O1  SGN d 904     -22.995  87.971  15.328  0.00  0.00    -0.369 OA
ATOM     84  O3  SGN d 904     -25.665  84.748  15.175  0.00  0.00    -0.391 OA
ATOM     85  O2S SGN d 904     -24.228  86.250  10.750  0.00  0.00    -0.296 OA
ATOM     86  C5  SGN d 904     -22.866  85.955  17.340  0.00  0.00     0.091 C 
ATOM     87  O6  SGN d 904     -21.506  84.127  17.987  0.00  0.00    -0.254 OA
ATOM     88  O1S SGN d 904     -22.283  87.244  11.785  0.00  0.00    -0.296 OA
ATOM     89  C1  SGN d 904     -22.475  86.663  15.074  0.00  0.00     0.147 C 
ATOM     90  C4  SGN d 904     -24.021  85.054  16.900  0.00  0.00     0.095 C 
ATOM     91  C2  SGN d 904     -23.596  85.762  14.576  0.00  0.00     0.081 C 
ATOM     92  C6  SGN d 904     -22.131  85.304  18.495  0.00  0.00     0.067 C 
ATOM     93  S1  SGN d 904     -23.287  86.170  11.885  0.00  0.00     0.156 S 
ATOM     94  H   SGN d 904     -25.103  86.573  15.867  0.00  0.00     0.089 H 
ATOM     95  H   SGN d 904     -24.293  87.342  13.567  0.00  0.00     0.140 HD
ATOM     96  H   SGN d 904     -23.279  84.155  11.956  0.00  0.00     0.231 HD
ATOM     97  H   SGN d 904     -22.282  88.546  15.646  0.00  0.00     0.212 HD
ATOM     98  H   SGN d 904     -25.272  83.885  14.972  0.00  0.00     0.210 HD
ATOM     99  H   SGN d 904     -24.885  85.540  10.824  0.00  0.00     0.231 HD
ATOM    100  H   SGN d 904     -23.263  86.907  17.623  0.00  0.00     0.090 H 
ATOM    101  H   SGN d 904     -21.670  87.184  12.534  0.00  0.00     0.231 HD
ATOM    102  H   SGN d 904     -21.702  86.745  14.339  0.00  0.00     0.131 H 
ATOM    103  H   SGN d 904     -23.656  84.067  16.709  0.00  0.00     0.091 H 
ATOM    104  H   SGN d 904     -23.199  84.794  14.351  0.00  0.00     0.076 H 
ATOM    105  H   SGN d 904     -22.822  85.046  19.270  0.00  0.00     0.080 H 
ATOM    106  H   SGN d 904     -21.406  85.972  18.908  0.00  0.00     0.080 H 
ENDROOT
TORSDOF 33
ENDMDL
MODEL 70
REMARK VINA RESULT:      -6.3      4.933     10.980
REMARK  0 active torsions:
REMARK  status: ('A' for Active; 'I' for Inactive)
REMARK       I    between atoms: C3_1  and  O3_18 
REMARK       I    between atoms: O6_3  and  C6_41 
REMARK       I    between atoms: O6_3  and  S2_27 
REMARK       I    between atoms: C1_4  and  O1_67 
REMARK       I    between atoms: O2_6  and  C2_60 
REMARK       I    between atoms: O2_6  and  S_64 
REMARK       I    between atoms: C5_7  and  C6_41 
REMARK       I    between atoms: C6_9  and  C5_36 
REMARK       I    between atoms: N_10  and  C2_26 
REMARK       I    between atoms: N_10  and  S1_14 
REMARK       I    between atoms: O2_12  and  C2_39 
REMARK       I    between atoms: O2_12  and  S_34 
REMARK       I    between atoms: C3_13  and  O3_44 
REMARK       I    between atoms: S1_14  and  O1S_57 
REMARK       I    between atoms: S1_14  and  O2S_48 
REMARK       I    between atoms: S1_14  and  O3S_38 
REMARK       I    between atoms: C6_16  and  C5_68 
REMARK       I    between atoms: C4_17  and  O4_62 
REMARK       I    between atoms: N_21  and  C2_65 
REMARK       I    between atoms: N_21  and  S1_69 
REMARK       I    between atoms: C3_25  and  O3_30 
REMARK       I    between atoms: O3S_29  and  S1_69 
REMARK       I    between atoms: O4_31  and  C1_42 
REMARK       I    between atoms: O4_31  and  C4_63 
REMARK       I    between atoms: S2_35  and  O6_49 
REMARK       I    between atoms: O1_37  and  C1_61 
REMARK       I    between atoms: O2S_45  and  S1_69 
REMARK       I    between atoms: O3_46  and  C3_55 
REMARK       I    between atoms: C5_47  and  C6_66 
REMARK       I    between atoms: O6_49  and  C6_66 
REMARK       I    between atoms: O1S_52  and  S1_69 
REMARK       I    between atoms: C1_54  and  O4_62 
REMARK       I    between atoms: C4_59  and  O1_67 
ROOT
ATOM      1  C3  UAP d 901     -23.190  86.530  18.147  0.00  0.00     0.086 C 
ATOM      2  O1S UAP d 901     -19.501  84.868  15.848  0.00  0.00    -0.572 OA
ATOM      3  C6  UAP d 901     -23.266  86.604  21.809  0.00  0.00     0.233 C 
ATOM      4  O2  UAP d 901     -21.446  84.940  17.650  0.00  0.00    -0.244 OA
ATOM      5  O3  UAP d 901     -24.351  86.830  17.402  0.00  0.00    -0.389 OA
ATOM      6  O61 UAP d 901     -23.694  87.770  21.970  0.00  0.00    -0.642 OA
ATOM      7  O5  UAP d 901     -22.618  84.897  20.389  0.00  0.00    -0.311 OA
ATOM      8  O2S UAP d 901     -21.496  86.080  15.255  0.00  0.00    -0.572 OA
ATOM      9  S   UAP d 901     -20.972  84.889  15.949  0.00  0.00     0.252 S 
ATOM     10  C5  UAP d 901     -23.087  86.140  20.572  0.00  0.00     0.147 C 
ATOM     11  C2  UAP d 901     -22.825  85.053  17.991  0.00  0.00     0.135 C 
ATOM     12  O62 UAP d 901     -22.994  85.869  22.782  0.00  0.00    -0.642 OA
ATOM     13  O3S UAP d 901     -21.526  83.673  15.323  0.00  0.00    -0.572 OA
ATOM     14  C4  UAP d 901     -23.370  86.937  19.525  0.00  0.00    -0.034 C 
ATOM     15  C1  UAP d 901     -23.118  84.225  19.235  0.00  0.00     0.167 C 
ATOM     16  H   UAP d 901     -22.358  87.086  17.768  0.00  0.00     0.093 H 
ATOM     17  H   UAP d 901     -25.100  86.323  17.752  0.00  0.00     0.210 HD
ATOM     18  H   UAP d 901     -23.442  84.661  17.210  0.00  0.00     0.097 H 
ATOM     19  H   UAP d 901     -23.732  87.884  19.714  0.00  0.00     0.085 H 
ATOM     20  H   UAP d 901     -22.626  83.277  19.166  0.00  0.00     0.134 H 
ATOM     21  O1S IDS d 903     -31.351  74.773  20.916  0.00  0.00    -0.572 OA
ATOM     22  O2  IDS d 903     -30.487  77.266  20.721  0.00  0.00    -0.244 OA
ATOM     23  O5  IDS d 903     -30.672  80.563  19.325  0.00  0.00    -0.340 OA
ATOM     24  C6  IDS d 903     -29.145  82.045  18.288  0.00  0.00     0.206 C 
ATOM     25  O2S IDS d 903     -30.293  75.406  18.842  0.00  0.00    -0.572 OA
ATOM     26  C3  IDS d 903     -28.947  79.075  20.633  0.00  0.00     0.094 C 
ATOM     27  O3S IDS d 903     -28.966  75.110  20.834  0.00  0.00    -0.572 OA
ATOM     28  O3  IDS d 903     -27.917  78.211  21.061  0.00  0.00    -0.390 OA
ATOM     29  O61 IDS d 903     -28.145  82.292  17.588  0.00  0.00    -0.646 OA
ATOM     30  C1  IDS d 903     -31.141  79.218  19.507  0.00  0.00     0.161 C 
ATOM     31  C4  IDS d 903     -28.361  80.135  19.691  0.00  0.00     0.103 C 
ATOM     32  C2  IDS d 903     -29.977  78.282  19.864  0.00  0.00     0.134 C 
ATOM     33  S   IDS d 903     -30.269  75.567  20.307  0.00  0.00     0.252 S 
ATOM     34  C5  IDS d 903     -29.411  80.603  18.675  0.00  0.00     0.152 C 
ATOM     35  O62 IDS d 903     -29.942  82.928  18.678  0.00  0.00    -0.646 OA
ATOM     36  H   IDS d 903     -29.395  79.540  21.486  0.00  0.00     0.091 H 
ATOM     37  H   IDS d 903     -27.509  77.788  20.290  0.00  0.00     0.210 HD
ATOM     38  H   IDS d 903     -31.864  79.220  20.295  0.00  0.00     0.133 H 
ATOM     39  H   IDS d 903     -27.531  79.703  19.172  0.00  0.00     0.092 H 
ATOM     40  H   IDS d 903     -29.543  77.860  18.983  0.00  0.00     0.097 H 
ATOM     41  H   IDS d 903     -29.381  79.982  17.804  0.00  0.00     0.104 H 
ATOM     42  O6  SGN d 902     -23.034  80.743  19.842  0.00  0.00    -0.254 OA
ATOM     43  C1  SGN d 902     -26.798  81.076  21.278  0.00  0.00     0.150 C 
ATOM     44  C5  SGN d 902     -25.215  81.688  19.552  0.00  0.00     0.091 C 
ATOM     45  N   SGN d 902     -27.685  82.776  22.774  0.00  0.00    -0.210 NA
ATOM     46  S1  SGN d 902     -28.084  81.985  24.305  0.00  0.00     0.156 S 
ATOM     47  C4  SGN d 902     -24.883  82.990  20.283  0.00  0.00     0.095 C 
ATOM     48  O5S SGN d 902     -20.986  79.268  19.053  0.00  0.00    -0.572 OA
ATOM     49  C2  SGN d 902     -26.503  82.364  22.043  0.00  0.00     0.081 C 
ATOM     50  S2  SGN d 902     -21.317  80.652  19.448  0.00  0.00     0.251 S 
ATOM     51  O3S SGN d 902     -27.985  80.523  24.146  0.00  0.00    -0.296 OA
ATOM     52  C6  SGN d 902     -23.975  81.150  18.851  0.00  0.00     0.067 C 
ATOM     53  O3  SGN d 902     -25.807  84.645  21.761  0.00  0.00    -0.391 OA
ATOM     54  O2S SGN d 902     -27.139  82.429  25.345  0.00  0.00    -0.296 OA
ATOM     55  O6S SGN d 902     -21.021  81.572  18.333  0.00  0.00    -0.572 OA
ATOM     56  C3  SGN d 902     -26.105  83.458  21.062  0.00  0.00     0.083 C 
ATOM     57  O5  SGN d 902     -25.644  80.708  20.511  0.00  0.00    -0.349 OA
ATOM     58  O1S SGN d 902     -29.458  82.348  24.699  0.00  0.00    -0.296 OA
ATOM     59  O4S SGN d 902     -20.520  81.035  20.629  0.00  0.00    -0.572 OA
ATOM     60  O4  SGN d 902     -24.522  83.995  19.334  0.00  0.00    -0.348 OA
ATOM     61  O1  SGN d 902     -27.954  81.269  20.459  0.00  0.00    -0.348 OA
ATOM     62  H   SGN d 902     -27.010  80.274  21.953  0.00  0.00     0.131 H 
ATOM     63  H   SGN d 902     -25.984  81.881  18.834  0.00  0.00     0.090 H 
ATOM     64  H   SGN d 902     -28.481  82.636  22.151  0.00  0.00     0.140 HD
ATOM     65  H   SGN d 902     -24.067  82.820  20.953  0.00  0.00     0.091 H 
ATOM     66  H   SGN d 902     -25.702  82.194  22.732  0.00  0.00     0.076 H 
ATOM     67  H   SGN d 902     -28.607  80.228  23.462  0.00  0.00     0.231 HD
ATOM     68  H   SGN d 902     -24.241  80.312  18.240  0.00  0.00     0.080 H 
ATOM     69  H   SGN d 902     -23.548  81.909  18.229  0.00  0.00     0.080 H 
ATOM     70  H   SGN d 902     -25.554  85.337  21.131  0.00  0.00     0.210 HD
ATOM     71  H   SGN d 902     -27.202  83.392  25.451  0.00  0.00     0.231 HD
ATOM     72  H   SGN d 902     -26.911  83.656  20.387  0.00  0.00     0.089 H 
ATOM     73  H   SGN d 902     -29.522  83.311  24.803  0.00  0.00     0.231 HD
ATOM     74  O4S SGN d 904     -35.154  79.654  22.484  0.00  0.00    -0.572 OA
ATOM     75  O5S SGN d 904     -35.563  77.280  22.402  0.00  0.00    -0.572 OA
ATOM     76  C3  SGN d 904     -32.998  79.879  16.638  0.00  0.00     0.083 C 
ATOM     77  N   SGN d 904     -34.425  80.836  14.943  0.00  0.00    -0.210 NA
ATOM     78  O5  SGN d 904     -35.260  78.426  17.565  0.00  0.00    -0.350 OA
ATOM     79  O6S SGN d 904     -33.304  78.108  22.331  0.00  0.00    -0.572 OA
ATOM     80  O3S SGN d 904     -36.345  82.474  15.674  0.00  0.00    -0.296 OA
ATOM     81  O4  SGN d 904     -31.702  78.749  18.284  0.00  0.00    -0.348 OA
ATOM     82  S2  SGN d 904     -34.697  78.369  21.921  0.00  0.00     0.251 S 
ATOM     83  O1  SGN d 904     -34.828  78.094  15.273  0.00  0.00    -0.369 OA
ATOM     84  O3  SGN d 904     -32.213  81.049  16.676  0.00  0.00    -0.391 OA
ATOM     85  O2S SGN d 904     -35.461  82.751  13.442  0.00  0.00    -0.296 OA
ATOM     86  C5  SGN d 904     -33.956  78.012  17.985  0.00  0.00     0.091 C 
ATOM     87  O6  SGN d 904     -34.779  78.436  20.165  0.00  0.00    -0.254 OA
ATOM     88  O1S SGN d 904     -36.878  80.863  13.962  0.00  0.00    -0.296 OA
ATOM     89  C1  SGN d 904     -35.301  79.013  16.261  0.00  0.00     0.147 C 
ATOM     90  C4  SGN d 904     -33.018  79.220  18.009  0.00  0.00     0.095 C 
ATOM     91  C2  SGN d 904     -34.418  80.253  16.261  0.00  0.00     0.081 C 
ATOM     92  C6  SGN d 904     -34.095  77.456  19.389  0.00  0.00     0.067 C 
ATOM     93  S1  SGN d 904     -35.841  81.772  14.480  0.00  0.00     0.156 S 
ATOM     94  H   SGN d 904     -32.582  79.200  15.922  0.00  0.00     0.089 H 
ATOM     95  H   SGN d 904     -34.327  80.075  14.271  0.00  0.00     0.140 HD
ATOM     96  H   SGN d 904     -35.660  83.071  16.011  0.00  0.00     0.231 HD
ATOM     97  H   SGN d 904     -35.390  77.303  15.271  0.00  0.00     0.212 HD
ATOM     98  H   SGN d 904     -32.586  81.667  17.323  0.00  0.00     0.210 HD
ATOM     99  H   SGN d 904     -34.778  83.345  13.792  0.00  0.00     0.231 HD
ATOM    100  H   SGN d 904     -33.555  77.279  17.318  0.00  0.00     0.090 H 
ATOM    101  H   SGN d 904     -37.121  80.224  14.650  0.00  0.00     0.231 HD
ATOM    102  H   SGN d 904     -36.313  79.270  16.024  0.00  0.00     0.131 H 
ATOM    103  H   SGN d 904     -33.350  79.920  18.746  0.00  0.00     0.091 H 
ATOM    104  H   SGN d 904     -34.795  80.956  16.974  0.00  0.00     0.076 H 
ATOM    105  H   SGN d 904     -33.128  77.267  19.806  0.00  0.00     0.080 H 
ATOM    106  H   SGN d 904     -34.636  76.533  19.379  0.00  0.00     0.080 H 
ENDROOT
TORSDOF 33
ENDMDL
MODEL 71
REMARK VINA RESULT:      -6.3      5.413      8.680
REMARK  0 active torsions:
REMARK  status: ('A' for Active; 'I' for Inactive)
REMARK       I    between atoms: C3_1  and  O3_18 
REMARK       I    between atoms: O6_3  and  C6_41 
REMARK       I    between atoms: O6_3  and  S2_27 
REMARK       I    between atoms: C1_4  and  O1_67 
REMARK       I    between atoms: O2_6  and  C2_60 
REMARK       I    between atoms: O2_6  and  S_64 
REMARK       I    between atoms: C5_7  and  C6_41 
REMARK       I    between atoms: C6_9  and  C5_36 
REMARK       I    between atoms: N_10  and  C2_26 
REMARK       I    between atoms: N_10  and  S1_14 
REMARK       I    between atoms: O2_12  and  C2_39 
REMARK       I    between atoms: O2_12  and  S_34 
REMARK       I    between atoms: C3_13  and  O3_44 
REMARK       I    between atoms: S1_14  and  O1S_57 
REMARK       I    between atoms: S1_14  and  O2S_48 
REMARK       I    between atoms: S1_14  and  O3S_38 
REMARK       I    between atoms: C6_16  and  C5_68 
REMARK       I    between atoms: C4_17  and  O4_62 
REMARK       I    between atoms: N_21  and  C2_65 
REMARK       I    between atoms: N_21  and  S1_69 
REMARK       I    between atoms: C3_25  and  O3_30 
REMARK       I    between atoms: O3S_29  and  S1_69 
REMARK       I    between atoms: O4_31  and  C1_42 
REMARK       I    between atoms: O4_31  and  C4_63 
REMARK       I    between atoms: S2_35  and  O6_49 
REMARK       I    between atoms: O1_37  and  C1_61 
REMARK       I    between atoms: O2S_45  and  S1_69 
REMARK       I    between atoms: O3_46  and  C3_55 
REMARK       I    between atoms: C5_47  and  C6_66 
REMARK       I    between atoms: O6_49  and  C6_66 
REMARK       I    between atoms: O1S_52  and  S1_69 
REMARK       I    between atoms: C1_54  and  O4_62 
REMARK       I    between atoms: C4_59  and  O1_67 
ROOT
ATOM      1  C3  UAP d 901     -21.473  77.969  17.707  0.00  0.00     0.086 C 
ATOM      2  O1S UAP d 901     -20.708  74.786  21.015  0.00  0.00    -0.572 OA
ATOM      3  C6  UAP d 901     -19.888  81.269  17.848  0.00  0.00     0.233 C 
ATOM      4  O2  UAP d 901     -21.286  77.155  19.970  0.00  0.00    -0.244 OA
ATOM      5  O3  UAP d 901     -22.475  77.698  16.750  0.00  0.00    -0.389 OA
ATOM      6  O61 UAP d 901     -19.500  81.347  16.659  0.00  0.00    -0.642 OA
ATOM      7  O5  UAP d 901     -20.958  80.082  19.520  0.00  0.00    -0.311 OA
ATOM      8  O2S UAP d 901     -21.756  74.798  18.847  0.00  0.00    -0.572 OA
ATOM      9  S   UAP d 901     -21.714  75.452  20.168  0.00  0.00     0.252 S 
ATOM     10  C5  UAP d 901     -20.548  80.181  18.247  0.00  0.00     0.147 C 
ATOM     11  C2  UAP d 901     -22.071  77.981  19.114  0.00  0.00     0.135 C 
ATOM     12  O62 UAP d 901     -19.661  82.182  18.670  0.00  0.00    -0.642 OA
ATOM     13  O3S UAP d 901     -23.040  75.353  20.807  0.00  0.00    -0.572 OA
ATOM     14  C4  UAP d 901     -20.782  79.194  17.364  0.00  0.00    -0.034 C 
ATOM     15  C1  UAP d 901     -22.183  79.379  19.709  0.00  0.00     0.167 C 
ATOM     16  H   UAP d 901     -20.740  77.189  17.700  0.00  0.00     0.093 H 
ATOM     17  H   UAP d 901     -23.135  78.409  16.763  0.00  0.00     0.210 HD
ATOM     18  H   UAP d 901     -23.068  77.603  19.032  0.00  0.00     0.097 H 
ATOM     19  H   UAP d 901     -20.452  79.316  16.394  0.00  0.00     0.085 H 
ATOM     20  H   UAP d 901     -22.368  79.313  20.761  0.00  0.00     0.134 H 
ATOM     21  O1S IDS d 903     -32.465  86.026  22.879  0.00  0.00    -0.572 OA
ATOM     22  O2  IDS d 903     -30.588  85.010  21.315  0.00  0.00    -0.244 OA
ATOM     23  O5  IDS d 903     -29.561  83.170  18.414  0.00  0.00    -0.340 OA
ATOM     24  C6  IDS d 903     -28.117  81.341  18.001  0.00  0.00     0.206 C 
ATOM     25  O2S IDS d 903     -32.268  83.622  22.824  0.00  0.00    -0.572 OA
ATOM     26  C3  IDS d 903     -28.544  83.962  20.704  0.00  0.00     0.094 C 
ATOM     27  O3S IDS d 903     -30.599  84.945  23.955  0.00  0.00    -0.572 OA
ATOM     28  O3  IDS d 903     -28.078  84.113  22.027  0.00  0.00    -0.390 OA
ATOM     29  O61 IDS d 903     -27.569  80.269  18.321  0.00  0.00    -0.646 OA
ATOM     30  C1  IDS d 903     -30.542  83.787  19.262  0.00  0.00     0.161 C 
ATOM     31  C4  IDS d 903     -27.963  82.674  20.106  0.00  0.00     0.103 C 
ATOM     32  C2  IDS d 903     -30.049  83.837  20.715  0.00  0.00     0.134 C 
ATOM     33  S   IDS d 903     -31.524  84.894  22.804  0.00  0.00     0.252 S 
ATOM     34  C5  IDS d 903     -28.914  82.082  19.057  0.00  0.00     0.152 C 
ATOM     35  O62 IDS d 903     -28.047  81.827  16.849  0.00  0.00    -0.646 OA
ATOM     36  H   IDS d 903     -28.245  84.810  20.125  0.00  0.00     0.091 H 
ATOM     37  H   IDS d 903     -28.348  83.346  22.554  0.00  0.00     0.210 HD
ATOM     38  H   IDS d 903     -30.719  84.779  18.901  0.00  0.00     0.133 H 
ATOM     39  H   IDS d 903     -27.824  81.968  20.898  0.00  0.00     0.092 H 
ATOM     40  H   IDS d 903     -30.348  82.960  21.250  0.00  0.00     0.097 H 
ATOM     41  H   IDS d 903     -29.607  81.414  19.524  0.00  0.00     0.104 H 
ATOM     42  O6  SGN d 902     -23.728  80.589  22.651  0.00  0.00    -0.254 OA
ATOM     43  C1  SGN d 902     -25.637  83.293  20.330  0.00  0.00     0.150 C 
ATOM     44  C5  SGN d 902     -24.920  80.998  20.616  0.00  0.00     0.091 C 
ATOM     45  N   SGN d 902     -24.711  84.642  18.533  0.00  0.00    -0.210 NA
ATOM     46  S1  SGN d 902     -24.754  86.332  19.056  0.00  0.00     0.156 S 
ATOM     47  C4  SGN d 902     -23.662  81.261  19.786  0.00  0.00     0.095 C 
ATOM     48  O5S SGN d 902     -23.387  79.370  24.972  0.00  0.00    -0.572 OA
ATOM     49  C2  SGN d 902     -24.398  83.605  19.494  0.00  0.00     0.081 C 
ATOM     50  S2  SGN d 902     -22.710  79.576  23.677  0.00  0.00     0.251 S 
ATOM     51  O3S SGN d 902     -25.537  86.444  20.300  0.00  0.00    -0.296 OA
ATOM     52  C6  SGN d 902     -24.621  79.988  21.715  0.00  0.00     0.067 C 
ATOM     53  O3  SGN d 902     -22.794  82.620  18.003  0.00  0.00    -0.391 OA
ATOM     54  O2S SGN d 902     -23.379  86.804  19.300  0.00  0.00    -0.296 OA
ATOM     55  O6S SGN d 902     -22.489  78.276  23.016  0.00  0.00    -0.572 OA
ATOM     56  C3  SGN d 902     -23.952  82.347  18.759  0.00  0.00     0.083 C 
ATOM     57  O5  SGN d 902     -25.337  82.224  21.238  0.00  0.00    -0.349 OA
ATOM     58  O1S SGN d 902     -25.379  87.154  18.003  0.00  0.00    -0.296 OA
ATOM     59  O4S SGN d 902     -21.413  80.245  23.895  0.00  0.00    -0.572 OA
ATOM     60  O4  SGN d 902     -23.277  80.067  19.104  0.00  0.00    -0.348 OA
ATOM     61  O1  SGN d 902     -26.725  82.975  19.460  0.00  0.00    -0.348 OA
ATOM     62  H   SGN d 902     -25.926  84.143  20.913  0.00  0.00     0.131 H 
ATOM     63  H   SGN d 902     -25.686  80.618  19.971  0.00  0.00     0.090 H 
ATOM     64  H   SGN d 902     -25.632  84.426  18.152  0.00  0.00     0.140 HD
ATOM     65  H   SGN d 902     -22.872  81.575  20.435  0.00  0.00     0.091 H 
ATOM     66  H   SGN d 902     -23.611  83.941  20.136  0.00  0.00     0.076 H 
ATOM     67  H   SGN d 902     -26.443  86.135  20.141  0.00  0.00     0.231 HD
ATOM     68  H   SGN d 902     -25.530  79.713  22.209  0.00  0.00     0.080 H 
ATOM     69  H   SGN d 902     -24.177  79.110  21.295  0.00  0.00     0.080 H 
ATOM     70  H   SGN d 902     -22.515  81.816  17.537  0.00  0.00     0.210 HD
ATOM     71  H   SGN d 902     -22.861  86.731  18.482  0.00  0.00     0.231 HD
ATOM     72  H   SGN d 902     -24.723  82.020  18.093  0.00  0.00     0.089 H 
ATOM     73  H   SGN d 902     -24.862  87.079  17.185  0.00  0.00     0.231 HD
ATOM     74  O4S SGN d 904     -31.903  87.951  16.819  0.00  0.00    -0.572 OA
ATOM     75  O5S SGN d 904     -33.509  88.515  18.526  0.00  0.00    -0.572 OA
ATOM     76  C3  SGN d 904     -32.781  81.813  17.472  0.00  0.00     0.083 C 
ATOM     77  N   SGN d 904     -34.037  80.663  15.761  0.00  0.00    -0.210 NA
ATOM     78  O5  SGN d 904     -34.789  83.828  17.436  0.00  0.00    -0.350 OA
ATOM     79  O6S SGN d 904     -31.465  87.395  19.129  0.00  0.00    -0.572 OA
ATOM     80  O3S SGN d 904     -34.224  81.746  13.375  0.00  0.00    -0.296 OA
ATOM     81  O4  SGN d 904     -31.734  83.005  19.245  0.00  0.00    -0.348 OA
ATOM     82  S2  SGN d 904     -32.510  87.524  18.094  0.00  0.00     0.251 S 
ATOM     83  O1  SGN d 904     -35.657  81.667  17.801  0.00  0.00    -0.369 OA
ATOM     84  O3  SGN d 904     -31.570  81.303  16.962  0.00  0.00    -0.391 OA
ATOM     85  O2S SGN d 904     -34.413  79.341  13.502  0.00  0.00    -0.296 OA
ATOM     86  C5  SGN d 904     -33.886  83.773  18.546  0.00  0.00     0.091 C 
ATOM     87  O6  SGN d 904     -33.300  85.968  17.875  0.00  0.00    -0.254 OA
ATOM     88  O1S SGN d 904     -36.222  80.744  14.277  0.00  0.00    -0.296 OA
ATOM     89  C1  SGN d 904     -35.073  82.556  16.844  0.00  0.00     0.147 C 
ATOM     90  C4  SGN d 904     -32.551  83.183  18.091  0.00  0.00     0.095 C 
ATOM     91  C2  SGN d 904     -33.770  81.959  16.331  0.00  0.00     0.081 C 
ATOM     92  C6  SGN d 904     -33.672  85.199  19.016  0.00  0.00     0.067 C 
ATOM     93  S1  SGN d 904     -34.759  80.617  14.157  0.00  0.00     0.156 S 
ATOM     94  H   SGN d 904     -33.158  81.143  18.216  0.00  0.00     0.089 H 
ATOM     95  H   SGN d 904     -34.669  80.174  16.395  0.00  0.00     0.140 HD
ATOM     96  H   SGN d 904     -33.261  81.659  13.298  0.00  0.00     0.231 HD
ATOM     97  H   SGN d 904     -36.488  82.046  18.128  0.00  0.00     0.212 HD
ATOM     98  H   SGN d 904     -31.224  81.907  16.286  0.00  0.00     0.210 HD
ATOM     99  H   SGN d 904     -33.448  79.266  13.427  0.00  0.00     0.231 HD
ATOM    100  H   SGN d 904     -34.282  83.164  19.330  0.00  0.00     0.090 H 
ATOM    101  H   SGN d 904     -36.440  81.585  14.708  0.00  0.00     0.231 HD
ATOM    102  H   SGN d 904     -35.768  82.690  16.042  0.00  0.00     0.131 H 
ATOM    103  H   SGN d 904     -32.092  83.834  17.378  0.00  0.00     0.091 H 
ATOM    104  H   SGN d 904     -33.352  82.607  15.589  0.00  0.00     0.076 H 
ATOM    105  H   SGN d 904     -32.893  85.230  19.749  0.00  0.00     0.080 H 
ATOM    106  H   SGN d 904     -34.562  85.588  19.463  0.00  0.00     0.080 H 
ENDROOT
TORSDOF 33
ENDMDL
MODEL 72
REMARK VINA RESULT:      -6.3      4.471     11.500
REMARK  0 active torsions:
REMARK  status: ('A' for Active; 'I' for Inactive)
REMARK       I    between atoms: C3_1  and  O3_18 
REMARK       I    between atoms: O6_3  and  C6_41 
REMARK       I    between atoms: O6_3  and  S2_27 
REMARK       I    between atoms: C1_4  and  O1_67 
REMARK       I    between atoms: O2_6  and  C2_60 
REMARK       I    between atoms: O2_6  and  S_64 
REMARK       I    between atoms: C5_7  and  C6_41 
REMARK       I    between atoms: C6_9  and  C5_36 
REMARK       I    between atoms: N_10  and  C2_26 
REMARK       I    between atoms: N_10  and  S1_14 
REMARK       I    between atoms: O2_12  and  C2_39 
REMARK       I    between atoms: O2_12  and  S_34 
REMARK       I    between atoms: C3_13  and  O3_44 
REMARK       I    between atoms: S1_14  and  O1S_57 
REMARK       I    between atoms: S1_14  and  O2S_48 
REMARK       I    between atoms: S1_14  and  O3S_38 
REMARK       I    between atoms: C6_16  and  C5_68 
REMARK       I    between atoms: C4_17  and  O4_62 
REMARK       I    between atoms: N_21  and  C2_65 
REMARK       I    between atoms: N_21  and  S1_69 
REMARK       I    between atoms: C3_25  and  O3_30 
REMARK       I    between atoms: O3S_29  and  S1_69 
REMARK       I    between atoms: O4_31  and  C1_42 
REMARK       I    between atoms: O4_31  and  C4_63 
REMARK       I    between atoms: S2_35  and  O6_49 
REMARK       I    between atoms: O1_37  and  C1_61 
REMARK       I    between atoms: O2S_45  and  S1_69 
REMARK       I    between atoms: O3_46  and  C3_55 
REMARK       I    between atoms: C5_47  and  C6_66 
REMARK       I    between atoms: O6_49  and  C6_66 
REMARK       I    between atoms: O1S_52  and  S1_69 
REMARK       I    between atoms: C1_54  and  O4_62 
REMARK       I    between atoms: C4_59  and  O1_67 
ROOT
ATOM      1  C3  UAP d 901     -36.314  80.677  17.105  0.00  0.00     0.086 C 
ATOM      2  O1S UAP d 901     -36.350  82.833  12.980  0.00  0.00    -0.572 OA
ATOM      3  C6  UAP d 901     -37.229  82.449  20.178  0.00  0.00     0.233 C 
ATOM      4  O2  UAP d 901     -35.821  82.456  15.553  0.00  0.00    -0.244 OA
ATOM      5  O3  UAP d 901     -35.762  79.379  17.166  0.00  0.00    -0.389 OA
ATOM      6  O61 UAP d 901     -37.990  81.589  20.677  0.00  0.00    -0.642 OA
ATOM      7  O5  UAP d 901     -35.836  83.119  18.457  0.00  0.00    -0.311 OA
ATOM      8  O2S UAP d 901     -36.136  80.554  13.730  0.00  0.00    -0.572 OA
ATOM      9  S   UAP d 901     -35.614  81.925  13.880  0.00  0.00     0.252 S 
ATOM     10  C5  UAP d 901     -36.644  82.200  19.006  0.00  0.00     0.147 C 
ATOM     11  C2  UAP d 901     -35.268  81.676  16.610  0.00  0.00     0.135 C 
ATOM     12  O62 UAP d 901     -37.013  83.539  20.749  0.00  0.00    -0.642 OA
ATOM     13  O3S UAP d 901     -34.180  81.945  13.535  0.00  0.00    -0.572 OA
ATOM     14  C4  UAP d 901     -36.886  81.030  18.387  0.00  0.00    -0.034 C 
ATOM     15  C1  UAP d 901     -34.744  82.594  17.706  0.00  0.00     0.167 C 
ATOM     16  H   UAP d 901     -37.112  80.702  16.393  0.00  0.00     0.093 H 
ATOM     17  H   UAP d 901     -35.040  79.365  17.813  0.00  0.00     0.210 HD
ATOM     18  H   UAP d 901     -34.432  81.107  16.263  0.00  0.00     0.097 H 
ATOM     19  H   UAP d 901     -37.511  80.352  18.849  0.00  0.00     0.085 H 
ATOM     20  H   UAP d 901     -34.216  83.417  17.272  0.00  0.00     0.134 H 
ATOM     21  O1S IDS d 903     -23.120  83.549  22.597  0.00  0.00    -0.572 OA
ATOM     22  O2  IDS d 903     -25.556  82.582  22.235  0.00  0.00    -0.244 OA
ATOM     23  O5  IDS d 903     -27.797  79.868  21.553  0.00  0.00    -0.340 OA
ATOM     24  C6  IDS d 903     -29.555  79.477  20.017  0.00  0.00     0.206 C 
ATOM     25  O2S IDS d 903     -23.686  82.813  20.371  0.00  0.00    -0.572 OA
ATOM     26  C3  IDS d 903     -27.818  82.495  21.512  0.00  0.00     0.094 C 
ATOM     27  O3S IDS d 903     -24.634  84.850  21.247  0.00  0.00    -0.572 OA
ATOM     28  O3  IDS d 903     -27.765  83.870  21.199  0.00  0.00    -0.390 OA
ATOM     29  O61 IDS d 903     -30.113  79.624  18.913  0.00  0.00    -0.646 OA
ATOM     30  C1  IDS d 903     -26.500  80.428  21.813  0.00  0.00     0.161 C 
ATOM     31  C4  IDS d 903     -28.760  81.787  20.529  0.00  0.00     0.103 C 
ATOM     32  C2  IDS d 903     -26.441  81.893  21.360  0.00  0.00     0.134 C 
ATOM     33  S   IDS d 903     -24.188  83.482  21.584  0.00  0.00     0.252 S 
ATOM     34  C5  IDS d 903     -28.337  80.327  20.323  0.00  0.00     0.152 C 
ATOM     35  O62 IDS d 903     -29.948  78.658  20.878  0.00  0.00    -0.646 OA
ATOM     36  H   IDS d 903     -28.168  82.375  22.516  0.00  0.00     0.091 H 
ATOM     37  H   IDS d 903     -27.448  83.982  20.290  0.00  0.00     0.210 HD
ATOM     38  H   IDS d 903     -26.313  80.361  22.864  0.00  0.00     0.133 H 
ATOM     39  H   IDS d 903     -28.720  82.304  19.593  0.00  0.00     0.092 H 
ATOM     40  H   IDS d 903     -26.112  81.966  20.345  0.00  0.00     0.097 H 
ATOM     41  H   IDS d 903     -27.635  80.258  19.519  0.00  0.00     0.104 H 
ATOM     42  O6  SGN d 902     -32.105  84.947  17.774  0.00  0.00    -0.254 OA
ATOM     43  C1  SGN d 902     -30.739  83.063  21.079  0.00  0.00     0.150 C 
ATOM     44  C5  SGN d 902     -31.650  82.855  18.846  0.00  0.00     0.091 C 
ATOM     45  N   SGN d 902     -32.018  82.282  22.993  0.00  0.00    -0.210 NA
ATOM     46  S1  SGN d 902     -31.538  83.255  24.390  0.00  0.00     0.156 S 
ATOM     47  C4  SGN d 902     -33.063  82.696  19.411  0.00  0.00     0.095 C 
ATOM     48  O5S SGN d 902     -31.795  86.707  15.825  0.00  0.00    -0.572 OA
ATOM     49  C2  SGN d 902     -32.129  82.906  21.691  0.00  0.00     0.081 C 
ATOM     50  S2  SGN d 902     -32.842  85.904  16.487  0.00  0.00     0.251 S 
ATOM     51  O3S SGN d 902     -30.363  84.074  24.042  0.00  0.00    -0.296 OA
ATOM     52  C6  SGN d 902     -31.696  83.604  17.521  0.00  0.00     0.067 C 
ATOM     53  O3  SGN d 902     -34.282  81.908  21.327  0.00  0.00    -0.391 OA
ATOM     54  O2S SGN d 902     -32.653  84.140  24.775  0.00  0.00    -0.296 OA
ATOM     55  O6S SGN d 902     -33.474  85.001  15.506  0.00  0.00    -0.572 OA
ATOM     56  C3  SGN d 902     -32.989  82.038  20.782  0.00  0.00     0.083 C 
ATOM     57  O5  SGN d 902     -30.861  83.626  19.766  0.00  0.00    -0.349 OA
ATOM     58  O1S SGN d 902     -31.203  82.364  25.516  0.00  0.00    -0.296 OA
ATOM     59  O4S SGN d 902     -33.864  86.799  17.064  0.00  0.00    -0.572 OA
ATOM     60  O4  SGN d 902     -33.839  81.872  18.540  0.00  0.00    -0.348 OA
ATOM     61  O1  SGN d 902     -30.084  81.792  21.064  0.00  0.00    -0.348 OA
ATOM     62  H   SGN d 902     -30.139  83.729  21.664  0.00  0.00     0.131 H 
ATOM     63  H   SGN d 902     -31.225  81.884  18.700  0.00  0.00     0.090 H 
ATOM     64  H   SGN d 902     -31.331  81.532  22.905  0.00  0.00     0.140 HD
ATOM     65  H   SGN d 902     -33.520  83.660  19.493  0.00  0.00     0.091 H 
ATOM     66  H   SGN d 902     -32.582  83.870  21.797  0.00  0.00     0.076 H 
ATOM     67  H   SGN d 902     -29.627  83.494  23.788  0.00  0.00     0.231 HD
ATOM     68  H   SGN d 902     -30.725  83.601  17.071  0.00  0.00     0.080 H 
ATOM     69  H   SGN d 902     -32.387  83.129  16.856  0.00  0.00     0.080 H 
ATOM     70  H   SGN d 902     -34.825  81.354  20.743  0.00  0.00     0.210 HD
ATOM     71  H   SGN d 902     -33.428  83.603  25.005  0.00  0.00     0.231 HD
ATOM     72  H   SGN d 902     -32.558  81.063  20.693  0.00  0.00     0.089 H 
ATOM     73  H   SGN d 902     -31.978  81.826  25.744  0.00  0.00     0.231 HD
ATOM     74  O4S SGN d 904     -25.463  79.109  26.539  0.00  0.00    -0.572 OA
ATOM     75  O5S SGN d 904     -23.296  80.160  26.433  0.00  0.00    -0.572 OA
ATOM     76  C3  SGN d 904     -25.355  77.395  20.545  0.00  0.00     0.083 C 
ATOM     77  N   SGN d 904     -24.965  75.066  20.043  0.00  0.00    -0.210 NA
ATOM     78  O5  SGN d 904     -23.205  77.239  22.401  0.00  0.00    -0.350 OA
ATOM     79  O6S SGN d 904     -25.145  81.106  25.217  0.00  0.00    -0.572 OA
ATOM     80  O3S SGN d 904     -25.461  73.266  21.891  0.00  0.00    -0.296 OA
ATOM     81  O4  SGN d 904     -25.524  79.712  21.061  0.00  0.00    -0.348 OA
ATOM     82  S2  SGN d 904     -24.521  79.850  25.679  0.00  0.00     0.251 S 
ATOM     83  O1  SGN d 904     -22.603  76.541  20.233  0.00  0.00    -0.369 OA
ATOM     84  O3  SGN d 904     -26.731  77.250  20.273  0.00  0.00    -0.391 OA
ATOM     85  O2S SGN d 904     -25.607  72.541  19.590  0.00  0.00    -0.296 OA
ATOM     86  C5  SGN d 904     -23.660  78.529  21.980  0.00  0.00     0.091 C 
ATOM     87  O6  SGN d 904     -24.103  78.866  24.283  0.00  0.00    -0.254 OA
ATOM     88  O1S SGN d 904     -23.451  72.972  20.593  0.00  0.00    -0.296 OA
ATOM     89  C1  SGN d 904     -23.342  76.214  21.413  0.00  0.00     0.147 C 
ATOM     90  C4  SGN d 904     -25.143  78.455  21.615  0.00  0.00     0.095 C 
ATOM     91  C2  SGN d 904     -24.817  76.074  21.062  0.00  0.00     0.081 C 
ATOM     92  C6  SGN d 904     -23.478  79.472  23.154  0.00  0.00     0.067 C 
ATOM     93  S1  SGN d 904     -24.865  73.384  20.548  0.00  0.00     0.156 S 
ATOM     94  H   SGN d 904     -24.848  77.686  19.649  0.00  0.00     0.089 H 
ATOM     95  H   SGN d 904     -24.234  75.222  19.349  0.00  0.00     0.140 HD
ATOM     96  H   SGN d 904     -26.391  73.537  21.857  0.00  0.00     0.231 HD
ATOM     97  H   SGN d 904     -21.663  76.630  20.454  0.00  0.00     0.212 HD
ATOM     98  H   SGN d 904     -27.194  76.986  21.083  0.00  0.00     0.210 HD
ATOM     99  H   SGN d 904     -26.537  72.819  19.567  0.00  0.00     0.231 HD
ATOM    100  H   SGN d 904     -23.113  78.868  21.126  0.00  0.00     0.090 H 
ATOM    101  H   SGN d 904     -22.971  73.531  21.225  0.00  0.00     0.231 HD
ATOM    102  H   SGN d 904     -22.959  75.295  21.805  0.00  0.00     0.131 H 
ATOM    103  H   SGN d 904     -25.718  78.217  22.485  0.00  0.00     0.091 H 
ATOM    104  H   SGN d 904     -25.363  75.793  21.937  0.00  0.00     0.076 H 
ATOM    105  H   SGN d 904     -23.937  80.415  22.942  0.00  0.00     0.080 H 
ATOM    106  H   SGN d 904     -22.439  79.646  23.342  0.00  0.00     0.080 H 
ENDROOT
TORSDOF 33
ENDMDL
MODEL 73
REMARK VINA RESULT:      -6.3      5.327     10.567
REMARK  0 active torsions:
REMARK  status: ('A' for Active; 'I' for Inactive)
REMARK       I    between atoms: C3_1  and  O3_18 
REMARK       I    between atoms: O6_3  and  C6_41 
REMARK       I    between atoms: O6_3  and  S2_27 
REMARK       I    between atoms: C1_4  and  O1_67 
REMARK       I    between atoms: O2_6  and  C2_60 
REMARK       I    between atoms: O2_6  and  S_64 
REMARK       I    between atoms: C5_7  and  C6_41 
REMARK       I    between atoms: C6_9  and  C5_36 
REMARK       I    between atoms: N_10  and  C2_26 
REMARK       I    between atoms: N_10  and  S1_14 
REMARK       I    between atoms: O2_12  and  C2_39 
REMARK       I    between atoms: O2_12  and  S_34 
REMARK       I    between atoms: C3_13  and  O3_44 
REMARK       I    between atoms: S1_14  and  O1S_57 
REMARK       I    between atoms: S1_14  and  O2S_48 
REMARK       I    between atoms: S1_14  and  O3S_38 
REMARK       I    between atoms: C6_16  and  C5_68 
REMARK       I    between atoms: C4_17  and  O4_62 
REMARK       I    between atoms: N_21  and  C2_65 
REMARK       I    between atoms: N_21  and  S1_69 
REMARK       I    between atoms: C3_25  and  O3_30 
REMARK       I    between atoms: O3S_29  and  S1_69 
REMARK       I    between atoms: O4_31  and  C1_42 
REMARK       I    between atoms: O4_31  and  C4_63 
REMARK       I    between atoms: S2_35  and  O6_49 
REMARK       I    between atoms: O1_37  and  C1_61 
REMARK       I    between atoms: O2S_45  and  S1_69 
REMARK       I    between atoms: O3_46  and  C3_55 
REMARK       I    between atoms: C5_47  and  C6_66 
REMARK       I    between atoms: O6_49  and  C6_66 
REMARK       I    between atoms: O1S_52  and  S1_69 
REMARK       I    between atoms: C1_54  and  O4_62 
REMARK       I    between atoms: C4_59  and  O1_67 
ROOT
ATOM      1  C3  UAP d 901     -20.830  77.210  20.146  0.00  0.00     0.086 C 
ATOM      2  O1S UAP d 901     -19.500  72.758  20.401  0.00  0.00    -0.572 OA
ATOM      3  C6  UAP d 901     -20.636  79.417  23.064  0.00  0.00     0.233 C 
ATOM      4  O2  UAP d 901     -20.735  74.998  21.104  0.00  0.00    -0.244 OA
ATOM      5  O3  UAP d 901     -21.483  77.637  18.970  0.00  0.00    -0.389 OA
ATOM      6  O61 UAP d 901     -20.112  80.415  22.518  0.00  0.00    -0.642 OA
ATOM      7  O5  UAP d 901     -21.451  77.257  22.909  0.00  0.00    -0.311 OA
ATOM      8  O2S UAP d 901     -20.098  74.277  18.631  0.00  0.00    -0.572 OA
ATOM      9  S   UAP d 901     -20.525  73.703  19.920  0.00  0.00     0.252 S 
ATOM     10  C5  UAP d 901     -20.901  78.335  22.331  0.00  0.00     0.147 C 
ATOM     11  C2  UAP d 901     -21.616  76.080  20.811  0.00  0.00     0.135 C 
ATOM     12  O62 UAP d 901     -20.907  79.409  24.284  0.00  0.00    -0.642 OA
ATOM     13  O3S UAP d 901     -21.805  72.993  19.741  0.00  0.00    -0.572 OA
ATOM     14  C4  UAP d 901     -20.598  78.342  21.020  0.00  0.00    -0.034 C 
ATOM     15  C1  UAP d 901     -22.339  76.512  22.080  0.00  0.00     0.167 C 
ATOM     16  H   UAP d 901     -19.869  76.806  19.905  0.00  0.00     0.093 H 
ATOM     17  H   UAP d 901     -22.353  78.003  19.198  0.00  0.00     0.210 HD
ATOM     18  H   UAP d 901     -22.372  75.776  20.117  0.00  0.00     0.097 H 
ATOM     19  H   UAP d 901     -20.180  79.195  20.618  0.00  0.00     0.085 H 
ATOM     20  H   UAP d 901     -22.659  75.651  22.629  0.00  0.00     0.134 H 
ATOM     21  O1S IDS d 903     -34.731  77.114  24.533  0.00  0.00    -0.572 OA
ATOM     22  O2  IDS d 903     -32.377  77.877  23.595  0.00  0.00    -0.244 OA
ATOM     23  O5  IDS d 903     -30.269  79.017  20.929  0.00  0.00    -0.340 OA
ATOM     24  C6  IDS d 903     -28.200  78.334  20.004  0.00  0.00     0.206 C 
ATOM     25  O2S IDS d 903     -33.647  75.637  22.963  0.00  0.00    -0.572 OA
ATOM     26  C3  IDS d 903     -30.019  77.918  23.302  0.00  0.00     0.094 C 
ATOM     27  O3S IDS d 903     -32.805  75.835  25.215  0.00  0.00    -0.572 OA
ATOM     28  O3  IDS d 903     -29.871  77.071  24.421  0.00  0.00    -0.390 OA
ATOM     29  O61 IDS d 903     -27.354  77.472  19.702  0.00  0.00    -0.646 OA
ATOM     30  C1  IDS d 903     -31.536  78.651  21.497  0.00  0.00     0.161 C 
ATOM     31  C4  IDS d 903     -28.909  77.615  22.288  0.00  0.00     0.103 C 
ATOM     32  C2  IDS d 903     -31.348  77.644  22.640  0.00  0.00     0.134 C 
ATOM     33  S   IDS d 903     -33.438  76.560  24.093  0.00  0.00     0.252 S 
ATOM     34  C5  IDS d 903     -29.380  77.913  20.858  0.00  0.00     0.152 C 
ATOM     35  O62 IDS d 903     -28.124  79.527  19.630  0.00  0.00    -0.646 OA
ATOM     36  H   IDS d 903     -29.965  78.937  23.622  0.00  0.00     0.091 H 
ATOM     37  H   IDS d 903     -29.920  76.146  24.135  0.00  0.00     0.210 HD
ATOM     38  H   IDS d 903     -32.006  79.539  21.865  0.00  0.00     0.133 H 
ATOM     39  H   IDS d 903     -28.651  76.580  22.369  0.00  0.00     0.092 H 
ATOM     40  H   IDS d 903     -31.383  76.640  22.274  0.00  0.00     0.097 H 
ATOM     41  H   IDS d 903     -29.842  77.045  20.436  0.00  0.00     0.104 H 
ATOM     42  O6  SGN d 902     -24.692  74.872  24.148  0.00  0.00    -0.254 OA
ATOM     43  C1  SGN d 902     -27.054  78.129  23.750  0.00  0.00     0.150 C 
ATOM     44  C5  SGN d 902     -25.592  76.529  22.672  0.00  0.00     0.091 C 
ATOM     45  N   SGN d 902     -26.410  80.470  23.881  0.00  0.00    -0.210 NA
ATOM     46  S1  SGN d 902     -27.167  81.153  25.326  0.00  0.00     0.156 S 
ATOM     47  C4  SGN d 902     -24.403  77.480  22.814  0.00  0.00     0.095 C 
ATOM     48  O5S SGN d 902     -24.315  72.375  24.930  0.00  0.00    -0.572 OA
ATOM     49  C2  SGN d 902     -25.899  79.115  23.914  0.00  0.00     0.081 C 
ATOM     50  S2  SGN d 902     -23.558  73.571  24.514  0.00  0.00     0.251 S 
ATOM     51  O3S SGN d 902     -28.132  80.187  25.882  0.00  0.00    -0.296 OA
ATOM     52  C6  SGN d 902     -25.127  75.085  22.806  0.00  0.00     0.067 C 
ATOM     53  O3  SGN d 902     -23.818  79.809  22.936  0.00  0.00    -0.391 OA
ATOM     54  O2S SGN d 902     -26.128  81.441  26.332  0.00  0.00    -0.296 OA
ATOM     55  O6S SGN d 902     -22.761  73.263  23.311  0.00  0.00    -0.572 OA
ATOM     56  C3  SGN d 902     -24.900  78.919  22.780  0.00  0.00     0.083 C 
ATOM     57  O5  SGN d 902     -26.534  76.793  23.724  0.00  0.00    -0.349 OA
ATOM     58  O1S SGN d 902     -27.866  82.401  24.968  0.00  0.00    -0.296 OA
ATOM     59  O4S SGN d 902     -22.659  73.995  25.605  0.00  0.00    -0.572 OA
ATOM     60  O4  SGN d 902     -23.492  77.277  21.733  0.00  0.00    -0.348 OA
ATOM     61  O1  SGN d 902     -27.783  78.450  22.564  0.00  0.00    -0.348 OA
ATOM     62  H   SGN d 902     -27.731  78.198  24.575  0.00  0.00     0.131 H 
ATOM     63  H   SGN d 902     -26.042  76.678  21.712  0.00  0.00     0.090 H 
ATOM     64  H   SGN d 902     -27.107  80.506  23.136  0.00  0.00     0.140 HD
ATOM     65  H   SGN d 902     -23.907  77.288  23.743  0.00  0.00     0.091 H 
ATOM     66  H   SGN d 902     -25.413  78.942  24.851  0.00  0.00     0.076 H 
ATOM     67  H   SGN d 902     -28.817  79.997  25.221  0.00  0.00     0.231 HD
ATOM     68  H   SGN d 902     -25.937  74.423  22.580  0.00  0.00     0.080 H 
ATOM     69  H   SGN d 902     -24.324  74.894  22.125  0.00  0.00     0.080 H 
ATOM     70  H   SGN d 902     -23.186  79.679  22.212  0.00  0.00     0.210 HD
ATOM     71  H   SGN d 902     -25.491  82.076  25.968  0.00  0.00     0.231 HD
ATOM     72  H   SGN d 902     -25.370  79.118  21.840  0.00  0.00     0.089 H 
ATOM     73  H   SGN d 902     -27.230  83.036  24.603  0.00  0.00     0.231 HD
ATOM     74  O4S SGN d 904     -33.920  83.005  22.214  0.00  0.00    -0.572 OA
ATOM     75  O5S SGN d 904     -35.882  81.878  23.045  0.00  0.00    -0.572 OA
ATOM     76  C3  SGN d 904     -32.544  78.463  18.170  0.00  0.00     0.083 C 
ATOM     77  N   SGN d 904     -32.976  78.865  15.830  0.00  0.00    -0.210 NA
ATOM     78  O5  SGN d 904     -35.122  79.537  18.716  0.00  0.00    -0.350 OA
ATOM     79  O6S SGN d 904     -33.701  80.954  23.471  0.00  0.00    -0.572 OA
ATOM     80  O3S SGN d 904     -33.151  81.344  14.976  0.00  0.00    -0.296 OA
ATOM     81  O4  SGN d 904     -32.329  78.015  20.498  0.00  0.00    -0.348 OA
ATOM     82  S2  SGN d 904     -34.529  81.692  22.497  0.00  0.00     0.251 S 
ATOM     83  O1  SGN d 904     -35.170  77.767  17.160  0.00  0.00    -0.369 OA
ATOM     84  O3  SGN d 904     -31.163  78.671  17.978  0.00  0.00    -0.391 OA
ATOM     85  O2S SGN d 904     -32.448  79.680  13.370  0.00  0.00    -0.296 OA
ATOM     86  C5  SGN d 904     -34.463  78.773  19.732  0.00  0.00     0.091 C 
ATOM     87  O6  SGN d 904     -34.633  80.762  21.008  0.00  0.00    -0.254 OA
ATOM     88  O1S SGN d 904     -34.752  79.772  14.095  0.00  0.00    -0.296 OA
ATOM     89  C1  SGN d 904     -34.808  79.133  17.379  0.00  0.00     0.147 C 
ATOM     90  C4  SGN d 904     -32.949  78.902  19.570  0.00  0.00     0.095 C 
ATOM     91  C2  SGN d 904     -33.310  79.299  17.163  0.00  0.00     0.081 C 
ATOM     92  C6  SGN d 904     -34.878  79.358  21.068  0.00  0.00     0.067 C 
ATOM     93  S1  SGN d 904     -33.349  79.961  14.505  0.00  0.00     0.156 S 
ATOM     94  H   SGN d 904     -32.764  77.424  18.045  0.00  0.00     0.089 H 
ATOM     95  H   SGN d 904     -33.477  77.994  15.656  0.00  0.00     0.140 HD
ATOM     96  H   SGN d 904     -32.227  81.465  15.243  0.00  0.00     0.231 HD
ATOM     97  H   SGN d 904     -36.124  77.660  17.298  0.00  0.00     0.212 HD
ATOM     98  H   SGN d 904     -30.960  79.612  18.090  0.00  0.00     0.210 HD
ATOM     99  H   SGN d 904     -31.527  79.808  13.648  0.00  0.00     0.231 HD
ATOM    100  H   SGN d 904     -34.729  77.739  19.665  0.00  0.00     0.090 H 
ATOM    101  H   SGN d 904     -35.336  79.958  14.847  0.00  0.00     0.231 HD
ATOM    102  H   SGN d 904     -35.358  79.741  16.691  0.00  0.00     0.131 H 
ATOM    103  H   SGN d 904     -32.653  79.917  19.735  0.00  0.00     0.091 H 
ATOM    104  H   SGN d 904     -33.046  80.328  17.290  0.00  0.00     0.076 H 
ATOM    105  H   SGN d 904     -34.301  78.919  21.855  0.00  0.00     0.080 H 
ATOM    106  H   SGN d 904     -35.910  79.160  21.265  0.00  0.00     0.080 H 
ENDROOT
TORSDOF 33
ENDMDL
MODEL 74
REMARK VINA RESULT:      -6.2      3.814      7.294
REMARK  0 active torsions:
REMARK  status: ('A' for Active; 'I' for Inactive)
REMARK       I    between atoms: C3_1  and  O3_18 
REMARK       I    between atoms: O6_3  and  C6_41 
REMARK       I    between atoms: O6_3  and  S2_27 
REMARK       I    between atoms: C1_4  and  O1_67 
REMARK       I    between atoms: O2_6  and  C2_60 
REMARK       I    between atoms: O2_6  and  S_64 
REMARK       I    between atoms: C5_7  and  C6_41 
REMARK       I    between atoms: C6_9  and  C5_36 
REMARK       I    between atoms: N_10  and  C2_26 
REMARK       I    between atoms: N_10  and  S1_14 
REMARK       I    between atoms: O2_12  and  C2_39 
REMARK       I    between atoms: O2_12  and  S_34 
REMARK       I    between atoms: C3_13  and  O3_44 
REMARK       I    between atoms: S1_14  and  O1S_57 
REMARK       I    between atoms: S1_14  and  O2S_48 
REMARK       I    between atoms: S1_14  and  O3S_38 
REMARK       I    between atoms: C6_16  and  C5_68 
REMARK       I    between atoms: C4_17  and  O4_62 
REMARK       I    between atoms: N_21  and  C2_65 
REMARK       I    between atoms: N_21  and  S1_69 
REMARK       I    between atoms: C3_25  and  O3_30 
REMARK       I    between atoms: O3S_29  and  S1_69 
REMARK       I    between atoms: O4_31  and  C1_42 
REMARK       I    between atoms: O4_31  and  C4_63 
REMARK       I    between atoms: S2_35  and  O6_49 
REMARK       I    between atoms: O1_37  and  C1_61 
REMARK       I    between atoms: O2S_45  and  S1_69 
REMARK       I    between atoms: O3_46  and  C3_55 
REMARK       I    between atoms: C5_47  and  C6_66 
REMARK       I    between atoms: O6_49  and  C6_66 
REMARK       I    between atoms: O1S_52  and  S1_69 
REMARK       I    between atoms: C1_54  and  O4_62 
REMARK       I    between atoms: C4_59  and  O1_67 
ROOT
ATOM      1  C3  UAP d 901     -30.934  73.956  20.867  0.00  0.00     0.086 C 
ATOM      2  O1S UAP d 901     -35.128  72.375  19.611  0.00  0.00    -0.572 OA
ATOM      3  C6  UAP d 901     -30.242  74.953  24.324  0.00  0.00     0.233 C 
ATOM      4  O2  UAP d 901     -33.343  73.978  20.745  0.00  0.00    -0.244 OA
ATOM      5  O3  UAP d 901     -29.995  74.218  19.847  0.00  0.00    -0.389 OA
ATOM      6  O61 UAP d 901     -29.142  74.373  24.475  0.00  0.00    -0.642 OA
ATOM      7  O5  UAP d 901     -32.058  75.463  22.986  0.00  0.00    -0.311 OA
ATOM      8  O2S UAP d 901     -32.952  72.490  18.584  0.00  0.00    -0.572 OA
ATOM      9  S   UAP d 901     -34.003  73.265  19.269  0.00  0.00     0.252 S 
ATOM     10  C5  UAP d 901     -30.875  74.855  23.155  0.00  0.00     0.147 C 
ATOM     11  C2  UAP d 901     -32.188  74.809  20.668  0.00  0.00     0.135 C 
ATOM     12  O62 UAP d 901     -30.765  75.613  25.248  0.00  0.00    -0.642 OA
ATOM     13  O3S UAP d 901     -34.478  74.340  18.378  0.00  0.00    -0.572 OA
ATOM     14  C4  UAP d 901     -30.316  74.136  22.164  0.00  0.00    -0.034 C 
ATOM     15  C1  UAP d 901     -32.307  75.950  21.669  0.00  0.00     0.167 C 
ATOM     16  H   UAP d 901     -31.255  72.936  20.818  0.00  0.00     0.093 H 
ATOM     17  H   UAP d 901     -29.710  75.143  19.899  0.00  0.00     0.210 HD
ATOM     18  H   UAP d 901     -32.108  75.258  19.701  0.00  0.00     0.097 H 
ATOM     19  H   UAP d 901     -29.402  73.690  22.338  0.00  0.00     0.085 H 
ATOM     20  H   UAP d 901     -33.298  76.352  21.648  0.00  0.00     0.134 H 
ATOM     21  O1S IDS d 903     -32.030  88.450  19.769  0.00  0.00    -0.572 OA
ATOM     22  O2  IDS d 903     -31.090  86.001  20.114  0.00  0.00    -0.244 OA
ATOM     23  O5  IDS d 903     -29.040  83.242  19.094  0.00  0.00    -0.340 OA
ATOM     24  C6  IDS d 903     -29.384  80.929  18.730  0.00  0.00     0.206 C 
ATOM     25  O2S IDS d 903     -32.741  86.772  18.188  0.00  0.00    -0.572 OA
ATOM     26  C3  IDS d 903     -31.079  83.695  20.689  0.00  0.00     0.094 C 
ATOM     27  O3S IDS d 903     -33.601  86.751  20.441  0.00  0.00    -0.572 OA
ATOM     28  O3  IDS d 903     -32.337  83.849  21.309  0.00  0.00    -0.390 OA
ATOM     29  O61 IDS d 903     -30.081  79.954  18.392  0.00  0.00    -0.646 OA
ATOM     30  C1  IDS d 903     -29.534  84.586  18.980  0.00  0.00     0.161 C 
ATOM     31  C4  IDS d 903     -30.980  82.287  20.087  0.00  0.00     0.103 C 
ATOM     32  C2  IDS d 903     -30.949  84.696  19.565  0.00  0.00     0.134 C 
ATOM     33  S   IDS d 903     -32.420  87.039  19.602  0.00  0.00     0.252 S 
ATOM     34  C5  IDS d 903     -30.058  82.281  18.860  0.00  0.00     0.152 C 
ATOM     35  O62 IDS d 903     -28.156  80.846  18.958  0.00  0.00    -0.646 OA
ATOM     36  H   IDS d 903     -30.307  83.846  21.414  0.00  0.00     0.091 H 
ATOM     37  H   IDS d 903     -33.039  83.713  20.653  0.00  0.00     0.210 HD
ATOM     38  H   IDS d 903     -28.867  85.233  19.511  0.00  0.00     0.133 H 
ATOM     39  H   IDS d 903     -31.961  81.975  19.796  0.00  0.00     0.092 H 
ATOM     40  H   IDS d 903     -31.688  84.513  18.814  0.00  0.00     0.097 H 
ATOM     41  H   IDS d 903     -30.622  82.493  17.976  0.00  0.00     0.104 H 
ATOM     42  O6  SGN d 902     -34.528  78.692  21.890  0.00  0.00    -0.254 OA
ATOM     43  C1  SGN d 902     -31.278  81.082  22.161  0.00  0.00     0.150 C 
ATOM     44  C5  SGN d 902     -32.339  79.201  21.066  0.00  0.00     0.091 C 
ATOM     45  N   SGN d 902     -29.277  80.741  23.499  0.00  0.00    -0.210 NA
ATOM     46  S1  SGN d 902     -29.246  81.996  24.745  0.00  0.00     0.156 S 
ATOM     47  C4  SGN d 902     -31.624  78.222  21.999  0.00  0.00     0.095 C 
ATOM     48  O5S SGN d 902     -37.135  78.365  21.595  0.00  0.00    -0.572 OA
ATOM     49  C2  SGN d 902     -30.541  80.145  23.115  0.00  0.00     0.081 C 
ATOM     50  S2  SGN d 902     -35.929  77.628  22.020  0.00  0.00     0.251 S 
ATOM     51  O3S SGN d 902     -30.293  82.996  24.465  0.00  0.00    -0.296 OA
ATOM     52  C6  SGN d 902     -33.723  78.674  20.713  0.00  0.00     0.067 C 
ATOM     53  O3  SGN d 902     -29.627  77.933  23.305  0.00  0.00    -0.391 OA
ATOM     54  O2S SGN d 902     -29.495  81.383  26.062  0.00  0.00    -0.296 OA
ATOM     55  O6S SGN d 902     -35.732  76.451  21.153  0.00  0.00    -0.572 OA
ATOM     56  C3  SGN d 902     -30.286  78.812  22.423  0.00  0.00     0.083 C 
ATOM     57  O5  SGN d 902     -32.499  80.460  21.739  0.00  0.00    -0.349 OA
ATOM     58  O1S SGN d 902     -27.925  82.651  24.746  0.00  0.00    -0.296 OA
ATOM     59  O4S SGN d 902     -36.084  77.188  23.420  0.00  0.00    -0.572 OA
ATOM     60  O4  SGN d 902     -31.394  76.988  21.318  0.00  0.00    -0.348 OA
ATOM     61  O1  SGN d 902     -30.425  81.401  21.060  0.00  0.00    -0.348 OA
ATOM     62  H   SGN d 902     -31.532  81.999  22.651  0.00  0.00     0.131 H 
ATOM     63  H   SGN d 902     -31.756  79.317  20.176  0.00  0.00     0.090 H 
ATOM     64  H   SGN d 902     -28.875  81.150  22.655  0.00  0.00     0.140 HD
ATOM     65  H   SGN d 902     -32.235  78.048  22.861  0.00  0.00     0.091 H 
ATOM     66  H   SGN d 902     -31.137  79.985  23.989  0.00  0.00     0.076 H 
ATOM     67  H   SGN d 902     -30.130  83.401  23.598  0.00  0.00     0.231 HD
ATOM     68  H   SGN d 902     -34.166  79.297  19.963  0.00  0.00     0.080 H 
ATOM     69  H   SGN d 902     -33.649  77.676  20.334  0.00  0.00     0.080 H 
ATOM     70  H   SGN d 902     -29.468  77.086  22.858  0.00  0.00     0.210 HD
ATOM     71  H   SGN d 902     -28.808  80.725  26.249  0.00  0.00     0.231 HD
ATOM     72  H   SGN d 902     -29.667  78.959  21.564  0.00  0.00     0.089 H 
ATOM     73  H   SGN d 902     -27.237  81.991  24.931  0.00  0.00     0.231 HD
ATOM     74  O4S SGN d 904     -25.785  87.471  20.649  0.00  0.00    -0.572 OA
ATOM     75  O5S SGN d 904     -27.031  89.482  20.190  0.00  0.00    -0.572 OA
ATOM     76  C3  SGN d 904     -28.184  84.407  15.777  0.00  0.00     0.083 C 
ATOM     77  N   SGN d 904     -26.772  84.070  13.848  0.00  0.00    -0.210 NA
ATOM     78  O5  SGN d 904     -27.291  87.108  15.820  0.00  0.00    -0.350 OA
ATOM     79  O6S SGN d 904     -28.188  87.491  20.889  0.00  0.00    -0.572 OA
ATOM     80  O3S SGN d 904     -24.164  84.183  14.144  0.00  0.00    -0.296 OA
ATOM     81  O4  SGN d 904     -29.616  84.938  17.602  0.00  0.00    -0.348 OA
ATOM     82  S2  SGN d 904     -27.048  88.013  20.111  0.00  0.00     0.251 S 
ATOM     83  O1  SGN d 904     -28.196  86.469  13.740  0.00  0.00    -0.369 OA
ATOM     84  O3  SGN d 904     -28.003  83.067  16.175  0.00  0.00    -0.391 OA
ATOM     85  O2S SGN d 904     -25.001  82.832  12.323  0.00  0.00    -0.296 OA
ATOM     86  C5  SGN d 904     -28.463  86.757  16.564  0.00  0.00     0.091 C 
ATOM     87  O6  SGN d 904     -27.225  87.528  18.430  0.00  0.00    -0.254 OA
ATOM     88  O1S SGN d 904     -25.086  85.244  12.186  0.00  0.00    -0.296 OA
ATOM     89  C1  SGN d 904     -27.089  86.330  14.636  0.00  0.00     0.147 C 
ATOM     90  C4  SGN d 904     -28.375  85.293  16.998  0.00  0.00     0.095 C 
ATOM     91  C2  SGN d 904     -26.944  84.869  15.035  0.00  0.00     0.081 C 
ATOM     92  C6  SGN d 904     -28.494  87.645  17.792  0.00  0.00     0.067 C 
ATOM     93  S1  SGN d 904     -25.186  84.082  13.086  0.00  0.00     0.156 S 
ATOM     94  H   SGN d 904     -29.047  84.474  15.149  0.00  0.00     0.089 H 
ATOM     95  H   SGN d 904     -27.446  84.401  13.156  0.00  0.00     0.140 HD
ATOM     96  H   SGN d 904     -24.233  83.416  14.734  0.00  0.00     0.231 HD
ATOM     97  H   SGN d 904     -28.290  87.400  13.485  0.00  0.00     0.212 HD
ATOM     98  H   SGN d 904     -27.221  83.001  16.744  0.00  0.00     0.210 HD
ATOM     99  H   SGN d 904     -25.069  82.073  12.924  0.00  0.00     0.231 HD
ATOM    100  H   SGN d 904     -29.344  86.887  15.972  0.00  0.00     0.090 H 
ATOM    101  H   SGN d 904     -25.209  86.060  12.696  0.00  0.00     0.231 HD
ATOM    102  H   SGN d 904     -26.208  86.675  14.136  0.00  0.00     0.131 H 
ATOM    103  H   SGN d 904     -27.556  85.166  17.674  0.00  0.00     0.091 H 
ATOM    104  H   SGN d 904     -26.094  84.760  15.675  0.00  0.00     0.076 H 
ATOM    105  H   SGN d 904     -29.270  87.325  18.456  0.00  0.00     0.080 H 
ATOM    106  H   SGN d 904     -28.691  88.661  17.520  0.00  0.00     0.080 H 
ENDROOT
TORSDOF 33
ENDMDL
MODEL 75
REMARK VINA RESULT:      -6.2      5.004      8.157
REMARK  0 active torsions:
REMARK  status: ('A' for Active; 'I' for Inactive)
REMARK       I    between atoms: C3_1  and  O3_18 
REMARK       I    between atoms: O6_3  and  C6_41 
REMARK       I    between atoms: O6_3  and  S2_27 
REMARK       I    between atoms: C1_4  and  O1_67 
REMARK       I    between atoms: O2_6  and  C2_60 
REMARK       I    between atoms: O2_6  and  S_64 
REMARK       I    between atoms: C5_7  and  C6_41 
REMARK       I    between atoms: C6_9  and  C5_36 
REMARK       I    between atoms: N_10  and  C2_26 
REMARK       I    between atoms: N_10  and  S1_14 
REMARK       I    between atoms: O2_12  and  C2_39 
REMARK       I    between atoms: O2_12  and  S_34 
REMARK       I    between atoms: C3_13  and  O3_44 
REMARK       I    between atoms: S1_14  and  O1S_57 
REMARK       I    between atoms: S1_14  and  O2S_48 
REMARK       I    between atoms: S1_14  and  O3S_38 
REMARK       I    between atoms: C6_16  and  C5_68 
REMARK       I    between atoms: C4_17  and  O4_62 
REMARK       I    between atoms: N_21  and  C2_65 
REMARK       I    between atoms: N_21  and  S1_69 
REMARK       I    between atoms: C3_25  and  O3_30 
REMARK       I    between atoms: O3S_29  and  S1_69 
REMARK       I    between atoms: O4_31  and  C1_42 
REMARK       I    between atoms: O4_31  and  C4_63 
REMARK       I    between atoms: S2_35  and  O6_49 
REMARK       I    between atoms: O1_37  and  C1_61 
REMARK       I    between atoms: O2S_45  and  S1_69 
REMARK       I    between atoms: O3_46  and  C3_55 
REMARK       I    between atoms: C5_47  and  C6_66 
REMARK       I    between atoms: O6_49  and  C6_66 
REMARK       I    between atoms: O1S_52  and  S1_69 
REMARK       I    between atoms: C1_54  and  O4_62 
REMARK       I    between atoms: C4_59  and  O1_67 
ROOT
ATOM      1  C3  UAP d 901     -22.463  77.049  19.425  0.00  0.00     0.086 C 
ATOM      2  O1S UAP d 901     -20.409  76.989  23.601  0.00  0.00    -0.572 OA
ATOM      3  C6  UAP d 901     -21.417  79.415  16.831  0.00  0.00     0.233 C 
ATOM      4  O2  UAP d 901     -21.587  78.013  21.455  0.00  0.00    -0.244 OA
ATOM      5  O3  UAP d 901     -23.622  76.261  19.248  0.00  0.00    -0.389 OA
ATOM      6  O61 UAP d 901     -21.359  78.625  15.861  0.00  0.00    -0.642 OA
ATOM      7  O5  UAP d 901     -21.834  79.788  19.076  0.00  0.00    -0.311 OA
ATOM      8  O2S UAP d 901     -21.961  75.572  22.425  0.00  0.00    -0.572 OA
ATOM      9  S   UAP d 901     -21.686  76.952  22.865  0.00  0.00     0.252 S 
ATOM     10  C5  UAP d 901     -21.780  78.953  18.028  0.00  0.00     0.147 C 
ATOM     11  C2  UAP d 901     -22.680  78.070  20.542  0.00  0.00     0.135 C 
ATOM     12  O62 UAP d 901     -21.131  80.625  16.705  0.00  0.00    -0.642 OA
ATOM     13  O3S UAP d 901     -22.776  77.412  23.746  0.00  0.00    -0.572 OA
ATOM     14  C4  UAP d 901     -22.077  77.648  18.164  0.00  0.00    -0.034 C 
ATOM     15  C1  UAP d 901     -22.849  79.495  20.032  0.00  0.00     0.167 C 
ATOM     16  H   UAP d 901     -21.646  76.433  19.737  0.00  0.00     0.093 H 
ATOM     17  H   UAP d 901     -24.357  76.827  18.966  0.00  0.00     0.210 HD
ATOM     18  H   UAP d 901     -23.595  77.809  21.030  0.00  0.00     0.097 H 
ATOM     19  H   UAP d 901     -22.026  77.044  17.330  0.00  0.00     0.085 H 
ATOM     20  H   UAP d 901     -22.749  80.187  20.842  0.00  0.00     0.134 H 
ATOM     21  O1S IDS d 903     -32.883  87.171  20.640  0.00  0.00    -0.572 OA
ATOM     22  O2  IDS d 903     -31.331  85.232  19.728  0.00  0.00    -0.244 OA
ATOM     23  O5  IDS d 903     -30.804  81.834  18.712  0.00  0.00    -0.340 OA
ATOM     24  C6  IDS d 903     -29.250  80.133  19.254  0.00  0.00     0.206 C 
ATOM     25  O2S IDS d 903     -32.342  85.388  22.173  0.00  0.00    -0.572 OA
ATOM     26  C3  IDS d 903     -29.373  83.916  19.435  0.00  0.00     0.094 C 
ATOM     27  O3S IDS d 903     -30.663  87.008  21.564  0.00  0.00    -0.572 OA
ATOM     28  O3  IDS d 903     -28.616  84.906  20.095  0.00  0.00    -0.390 OA
ATOM     29  O61 IDS d 903     -28.482  79.545  20.038  0.00  0.00    -0.646 OA
ATOM     30  C1  IDS d 903     -31.620  82.931  19.151  0.00  0.00     0.161 C 
ATOM     31  C4  IDS d 903     -28.773  82.536  19.734  0.00  0.00     0.103 C 
ATOM     32  C2  IDS d 903     -30.789  83.937  19.960  0.00  0.00     0.134 C 
ATOM     33  S   IDS d 903     -31.830  86.240  21.085  0.00  0.00     0.252 S 
ATOM     34  C5  IDS d 903     -29.857  81.450  19.697  0.00  0.00     0.152 C 
ATOM     35  O62 IDS d 903     -29.549  79.683  18.124  0.00  0.00    -0.646 OA
ATOM     36  H   IDS d 903     -29.363  84.107  18.383  0.00  0.00     0.091 H 
ATOM     37  H   IDS d 903     -28.623  84.736  21.049  0.00  0.00     0.210 HD
ATOM     38  H   IDS d 903     -32.032  83.408  18.286  0.00  0.00     0.133 H 
ATOM     39  H   IDS d 903     -28.332  82.564  20.708  0.00  0.00     0.092 H 
ATOM     40  H   IDS d 903     -30.805  83.694  21.002  0.00  0.00     0.097 H 
ATOM     41  H   IDS d 903     -30.298  81.339  20.666  0.00  0.00     0.104 H 
ATOM     42  O6  SGN d 902     -23.764  82.503  21.651  0.00  0.00    -0.254 OA
ATOM     43  C1  SGN d 902     -26.589  82.978  18.798  0.00  0.00     0.150 C 
ATOM     44  C5  SGN d 902     -25.482  81.474  20.338  0.00  0.00     0.091 C 
ATOM     45  N   SGN d 902     -26.365  82.647  16.400  0.00  0.00    -0.210 NA
ATOM     46  S1  SGN d 902     -26.532  84.227  15.623  0.00  0.00     0.156 S 
ATOM     47  C4  SGN d 902     -24.530  81.005  19.236  0.00  0.00     0.095 C 
ATOM     48  O5S SGN d 902     -22.665  83.205  23.951  0.00  0.00    -0.572 OA
ATOM     49  C2  SGN d 902     -25.664  82.541  17.664  0.00  0.00     0.081 C 
ATOM     50  S2  SGN d 902     -22.378  82.413  22.739  0.00  0.00     0.251 S 
ATOM     51  O3S SGN d 902     -26.982  85.220  16.616  0.00  0.00    -0.296 OA
ATOM     52  C6  SGN d 902     -24.764  81.485  21.680  0.00  0.00     0.067 C 
ATOM     53  O3  SGN d 902     -24.360  80.693  16.858  0.00  0.00    -0.391 OA
ATOM     54  O2S SGN d 902     -25.228  84.642  15.074  0.00  0.00    -0.296 OA
ATOM     55  O6S SGN d 902     -22.136  81.005  23.108  0.00  0.00    -0.572 OA
ATOM     56  C3  SGN d 902     -25.233  81.098  17.888  0.00  0.00     0.083 C 
ATOM     57  O5  SGN d 902     -25.909  82.814  20.050  0.00  0.00    -0.349 OA
ATOM     58  O1S SGN d 902     -27.521  84.134  14.534  0.00  0.00    -0.296 OA
ATOM     59  O4S SGN d 902     -21.185  82.957  22.061  0.00  0.00    -0.572 OA
ATOM     60  O4  SGN d 902     -24.152  79.648  19.471  0.00  0.00    -0.348 OA
ATOM     61  O1  SGN d 902     -27.800  82.223  18.737  0.00  0.00    -0.348 OA
ATOM     62  H   SGN d 902     -26.846  84.012  18.701  0.00  0.00     0.131 H 
ATOM     63  H   SGN d 902     -26.318  80.807  20.379  0.00  0.00     0.090 H 
ATOM     64  H   SGN d 902     -27.308  82.291  16.554  0.00  0.00     0.140 HD
ATOM     65  H   SGN d 902     -23.658  81.625  19.235  0.00  0.00     0.091 H 
ATOM     66  H   SGN d 902     -24.801  83.173  17.645  0.00  0.00     0.076 H 
ATOM     67  H   SGN d 902     -27.840  84.949  16.979  0.00  0.00     0.231 HD
ATOM     68  H   SGN d 902     -25.465  81.690  22.463  0.00  0.00     0.080 H 
ATOM     69  H   SGN d 902     -24.312  80.532  21.862  0.00  0.00     0.080 H 
ATOM     70  H   SGN d 902     -24.089  79.774  17.007  0.00  0.00     0.210 HD
ATOM     71  H   SGN d 902     -24.930  83.990  14.421  0.00  0.00     0.231 HD
ATOM     72  H   SGN d 902     -26.088  80.455  17.880  0.00  0.00     0.089 H 
ATOM     73  H   SGN d 902     -27.222  83.481  13.881  0.00  0.00     0.231 HD
ATOM     74  O4S SGN d 904     -34.174  84.336  15.069  0.00  0.00    -0.572 OA
ATOM     75  O5S SGN d 904     -35.362  86.029  16.307  0.00  0.00    -0.572 OA
ATOM     76  C3  SGN d 904     -33.912  80.425  19.918  0.00  0.00     0.083 C 
ATOM     77  N   SGN d 904     -35.369  78.501  19.899  0.00  0.00    -0.210 NA
ATOM     78  O5  SGN d 904     -36.146  81.988  19.108  0.00  0.00    -0.350 OA
ATOM     79  O6S SGN d 904     -33.087  85.500  16.885  0.00  0.00    -0.572 OA
ATOM     80  O3S SGN d 904     -36.318  77.647  17.602  0.00  0.00    -0.296 OA
ATOM     81  O4  SGN d 904     -32.644  82.437  20.012  0.00  0.00    -0.348 OA
ATOM     82  S2  SGN d 904     -34.366  84.950  16.397  0.00  0.00     0.251 S 
ATOM     83  O1  SGN d 904     -36.553  80.743  21.067  0.00  0.00    -0.369 OA
ATOM     84  O3  SGN d 904     -32.806  79.623  19.569  0.00  0.00    -0.391 OA
ATOM     85  O2S SGN d 904     -36.099  76.015  19.371  0.00  0.00    -0.296 OA
ATOM     86  C5  SGN d 904     -34.994  82.654  19.637  0.00  0.00     0.091 C 
ATOM     87  O6  SGN d 904     -34.939  83.731  17.528  0.00  0.00    -0.254 OA
ATOM     88  O1S SGN d 904     -37.845  77.684  19.467  0.00  0.00    -0.296 OA
ATOM     89  C1  SGN d 904     -36.373  80.683  19.649  0.00  0.00     0.147 C 
ATOM     90  C4  SGN d 904     -33.744  81.824  19.345  0.00  0.00     0.095 C 
ATOM     91  C2  SGN d 904     -35.167  79.810  19.331  0.00  0.00     0.081 C 
ATOM     92  C6  SGN d 904     -34.888  83.990  18.930  0.00  0.00     0.067 C 
ATOM     93  S1  SGN d 904     -36.458  77.410  19.050  0.00  0.00     0.156 S 
ATOM     94  H   SGN d 904     -33.981  80.482  20.985  0.00  0.00     0.089 H 
ATOM     95  H   SGN d 904     -35.738  78.630  20.841  0.00  0.00     0.140 HD
ATOM     96  H   SGN d 904     -35.404  77.466  17.332  0.00  0.00     0.231 HD
ATOM     97  H   SGN d 904     -37.321  81.298  21.272  0.00  0.00     0.212 HD
ATOM     98  H   SGN d 904     -32.739  79.568  18.603  0.00  0.00     0.210 HD
ATOM     99  H   SGN d 904     -35.185  75.844  19.093  0.00  0.00     0.231 HD
ATOM    100  H   SGN d 904     -35.081  82.783  20.695  0.00  0.00     0.090 H 
ATOM    101  H   SGN d 904     -38.072  78.602  19.253  0.00  0.00     0.231 HD
ATOM    102  H   SGN d 904     -37.261  80.273  19.215  0.00  0.00     0.131 H 
ATOM    103  H   SGN d 904     -33.585  81.770  18.288  0.00  0.00     0.091 H 
ATOM    104  H   SGN d 904     -35.055  79.736  18.269  0.00  0.00     0.076 H 
ATOM    105  H   SGN d 904     -33.963  84.466  19.181  0.00  0.00     0.080 H 
ATOM    106  H   SGN d 904     -35.684  84.641  19.225  0.00  0.00     0.080 H 
ENDROOT
TORSDOF 33
ENDMDL
MODEL 76
REMARK VINA RESULT:      -6.1      3.956      5.763
REMARK  0 active torsions:
REMARK  status: ('A' for Active; 'I' for Inactive)
REMARK       I    between atoms: C3_1  and  O3_18 
REMARK       I    between atoms: O6_3  and  C6_41 
REMARK       I    between atoms: O6_3  and  S2_27 
REMARK       I    between atoms: C1_4  and  O1_67 
REMARK       I    between atoms: O2_6  and  C2_60 
REMARK       I    between atoms: O2_6  and  S_64 
REMARK       I    between atoms: C5_7  and  C6_41 
REMARK       I    between atoms: C6_9  and  C5_36 
REMARK       I    between atoms: N_10  and  C2_26 
REMARK       I    between atoms: N_10  and  S1_14 
REMARK       I    between atoms: O2_12  and  C2_39 
REMARK       I    between atoms: O2_12  and  S_34 
REMARK       I    between atoms: C3_13  and  O3_44 
REMARK       I    between atoms: S1_14  and  O1S_57 
REMARK       I    between atoms: S1_14  and  O2S_48 
REMARK       I    between atoms: S1_14  and  O3S_38 
REMARK       I    between atoms: C6_16  and  C5_68 
REMARK       I    between atoms: C4_17  and  O4_62 
REMARK       I    between atoms: N_21  and  C2_65 
REMARK       I    between atoms: N_21  and  S1_69 
REMARK       I    between atoms: C3_25  and  O3_30 
REMARK       I    between atoms: O3S_29  and  S1_69 
REMARK       I    between atoms: O4_31  and  C1_42 
REMARK       I    between atoms: O4_31  and  C4_63 
REMARK       I    between atoms: S2_35  and  O6_49 
REMARK       I    between atoms: O1_37  and  C1_61 
REMARK       I    between atoms: O2S_45  and  S1_69 
REMARK       I    between atoms: O3_46  and  C3_55 
REMARK       I    between atoms: C5_47  and  C6_66 
REMARK       I    between atoms: O6_49  and  C6_66 
REMARK       I    between atoms: O1S_52  and  S1_69 
REMARK       I    between atoms: C1_54  and  O4_62 
REMARK       I    between atoms: C4_59  and  O1_67 
ROOT
ATOM      1  C3  UAP d 901     -27.032  73.673  21.992  0.00  0.00     0.086 C 
ATOM      2  O1S UAP d 901     -28.207  72.802  26.410  0.00  0.00    -0.572 OA
ATOM      3  C6  UAP d 901     -23.680  74.871  21.122  0.00  0.00     0.233 C 
ATOM      4  O2  UAP d 901     -27.205  74.143  24.351  0.00  0.00    -0.244 OA
ATOM      5  O3  UAP d 901     -28.054  73.642  21.019  0.00  0.00    -0.389 OA
ATOM      6  O61 UAP d 901     -23.448  74.111  20.155  0.00  0.00    -0.642 OA
ATOM      7  O5  UAP d 901     -25.101  75.578  22.806  0.00  0.00    -0.311 OA
ATOM      8  O2S UAP d 901     -29.195  72.391  24.253  0.00  0.00    -0.572 OA
ATOM      9  S   UAP d 901     -28.615  73.420  25.135  0.00  0.00     0.252 S 
ATOM     10  C5  UAP d 901     -24.847  74.776  21.761  0.00  0.00     0.147 C 
ATOM     11  C2  UAP d 901     -27.343  74.724  23.057  0.00  0.00     0.135 C 
ATOM     12  O62 UAP d 901     -22.840  75.711  21.509  0.00  0.00    -0.642 OA
ATOM     13  O3S UAP d 901     -29.620  74.468  25.394  0.00  0.00    -0.572 OA
ATOM     14  C4  UAP d 901     -25.747  73.864  21.351  0.00  0.00    -0.034 C 
ATOM     15  C1  UAP d 901     -26.465  75.965  22.955  0.00  0.00     0.167 C 
ATOM     16  H   UAP d 901     -26.984  72.734  22.503  0.00  0.00     0.093 H 
ATOM     17  H   UAP d 901     -28.090  74.497  20.561  0.00  0.00     0.210 HD
ATOM     18  H   UAP d 901     -28.349  75.048  22.892  0.00  0.00     0.097 H 
ATOM     19  H   UAP d 901     -25.510  73.272  20.541  0.00  0.00     0.085 H 
ATOM     20  H   UAP d 901     -26.548  76.545  23.850  0.00  0.00     0.134 H 
ATOM     21  O1S IDS d 903     -29.620  87.915  20.274  0.00  0.00    -0.572 OA
ATOM     22  O2  IDS d 903     -29.008  85.381  19.824  0.00  0.00    -0.244 OA
ATOM     23  O5  IDS d 903     -29.699  82.189  18.343  0.00  0.00    -0.340 OA
ATOM     24  C6  IDS d 903     -29.834  79.960  19.126  0.00  0.00     0.206 C 
ATOM     25  O2S IDS d 903     -31.036  86.249  21.294  0.00  0.00    -0.572 OA
ATOM     26  C3  IDS d 903     -28.202  83.187  20.257  0.00  0.00     0.094 C 
ATOM     27  O3S IDS d 903     -28.810  86.627  22.144  0.00  0.00    -0.572 OA
ATOM     28  O3  IDS d 903     -27.627  83.643  21.463  0.00  0.00    -0.390 OA
ATOM     29  O61 IDS d 903     -30.085  79.107  19.997  0.00  0.00    -0.646 OA
ATOM     30  C1  IDS d 903     -29.960  83.584  18.568  0.00  0.00     0.161 C 
ATOM     31  C4  IDS d 903     -28.655  81.731  20.431  0.00  0.00     0.103 C 
ATOM     32  C2  IDS d 903     -29.419  84.023  19.936  0.00  0.00     0.134 C 
ATOM     33  S   IDS d 903     -29.650  86.595  20.928  0.00  0.00     0.252 S 
ATOM     34  C5  IDS d 903     -29.856  81.422  19.526  0.00  0.00     0.152 C 
ATOM     35  O62 IDS d 903     -29.574  79.667  17.936  0.00  0.00    -0.646 OA
ATOM     36  H   IDS d 903     -27.480  83.262  19.472  0.00  0.00     0.091 H 
ATOM     37  H   IDS d 903     -28.279  83.576  22.177  0.00  0.00     0.210 HD
ATOM     38  H   IDS d 903     -29.484  84.143  17.789  0.00  0.00     0.133 H 
ATOM     39  H   IDS d 903     -28.933  81.585  21.453  0.00  0.00     0.092 H 
ATOM     40  H   IDS d 903     -30.162  83.907  20.696  0.00  0.00     0.097 H 
ATOM     41  H   IDS d 903     -30.768  81.645  20.039  0.00  0.00     0.104 H 
ATOM     42  O6  SGN d 902     -26.569  79.090  24.606  0.00  0.00    -0.254 OA
ATOM     43  C1  SGN d 902     -26.476  80.827  20.957  0.00  0.00     0.150 C 
ATOM     44  C5  SGN d 902     -27.396  79.082  22.359  0.00  0.00     0.091 C 
ATOM     45  N   SGN d 902     -25.070  80.250  19.061  0.00  0.00    -0.210 NA
ATOM     46  S1  SGN d 902     -23.957  81.599  18.789  0.00  0.00     0.156 S 
ATOM     47  C4  SGN d 902     -26.353  78.086  21.848  0.00  0.00     0.095 C 
ATOM     48  O5S SGN d 902     -26.884  79.239  27.227  0.00  0.00    -0.572 OA
ATOM     49  C2  SGN d 902     -25.417  79.871  20.415  0.00  0.00     0.081 C 
ATOM     50  S2  SGN d 902     -26.361  78.332  26.186  0.00  0.00     0.251 S 
ATOM     51  O3S SGN d 902     -24.359  82.746  19.623  0.00  0.00    -0.296 OA
ATOM     52  C6  SGN d 902     -27.722  78.796  23.819  0.00  0.00     0.067 C 
ATOM     53  O3  SGN d 902     -24.984  77.556  19.944  0.00  0.00    -0.391 OA
ATOM     54  O2S SGN d 902     -22.590  81.185  19.152  0.00  0.00    -0.296 OA
ATOM     55  O6S SGN d 902     -27.101  77.056  26.219  0.00  0.00    -0.572 OA
ATOM     56  C3  SGN d 902     -25.964  78.450  20.421  0.00  0.00     0.083 C 
ATOM     57  O5  SGN d 902     -26.857  80.410  22.275  0.00  0.00    -0.349 OA
ATOM     58  O1S SGN d 902     -23.995  81.985  17.366  0.00  0.00    -0.296 OA
ATOM     59  O4S SGN d 902     -24.927  78.078  26.424  0.00  0.00    -0.572 OA
ATOM     60  O4  SGN d 902     -26.901  76.767  21.859  0.00  0.00    -0.348 OA
ATOM     61  O1  SGN d 902     -27.586  80.861  20.058  0.00  0.00    -0.348 OA
ATOM     62  H   SGN d 902     -26.088  81.822  21.031  0.00  0.00     0.131 H 
ATOM     63  H   SGN d 902     -28.281  78.991  21.765  0.00  0.00     0.090 H 
ATOM     64  H   SGN d 902     -25.942  80.485  18.586  0.00  0.00     0.140 HD
ATOM     65  H   SGN d 902     -25.492  78.122  22.481  0.00  0.00     0.091 H 
ATOM     66  H   SGN d 902     -24.543  79.920  21.032  0.00  0.00     0.076 H 
ATOM     67  H   SGN d 902     -25.259  83.020  19.385  0.00  0.00     0.231 HD
ATOM     68  H   SGN d 902     -28.540  79.410  24.133  0.00  0.00     0.080 H 
ATOM     69  H   SGN d 902     -27.996  77.768  23.938  0.00  0.00     0.080 H 
ATOM     70  H   SGN d 902     -25.339  76.653  19.951  0.00  0.00     0.210 HD
ATOM     71  H   SGN d 902     -22.323  80.430  18.605  0.00  0.00     0.231 HD
ATOM     72  H   SGN d 902     -26.821  78.385  19.785  0.00  0.00     0.089 H 
ATOM     73  H   SGN d 902     -23.730  81.228  16.819  0.00  0.00     0.231 HD
ATOM     74  O4S SGN d 904     -28.516  85.854  14.335  0.00  0.00    -0.572 OA
ATOM     75  O5S SGN d 904     -29.203  88.008  15.171  0.00  0.00    -0.572 OA
ATOM     76  C3  SGN d 904     -33.100  82.818  17.276  0.00  0.00     0.083 C 
ATOM     77  N   SGN d 904     -34.955  82.019  15.954  0.00  0.00    -0.210 NA
ATOM     78  O5  SGN d 904     -33.313  85.287  15.880  0.00  0.00    -0.350 OA
ATOM     79  O6S SGN d 904     -28.329  86.359  16.690  0.00  0.00    -0.572 OA
ATOM     80  O3S SGN d 904     -34.618  81.660  13.374  0.00  0.00    -0.296 OA
ATOM     81  O4  SGN d 904     -31.368  83.800  18.580  0.00  0.00    -0.348 OA
ATOM     82  S2  SGN d 904     -29.131  86.569  15.469  0.00  0.00     0.251 S 
ATOM     83  O1  SGN d 904     -35.335  84.622  16.889  0.00  0.00    -0.369 OA
ATOM     84  O3  SGN d 904     -32.564  81.517  17.357  0.00  0.00    -0.391 OA
ATOM     85  O2S SGN d 904     -36.309  80.314  14.454  0.00  0.00    -0.296 OA
ATOM     86  C5  SGN d 904     -32.562  85.246  17.098  0.00  0.00     0.091 C 
ATOM     87  O6  SGN d 904     -30.758  85.955  15.735  0.00  0.00    -0.254 OA
ATOM     88  O1S SGN d 904     -36.692  82.670  14.072  0.00  0.00    -0.296 OA
ATOM     89  C1  SGN d 904     -34.408  84.367  15.831  0.00  0.00     0.147 C 
ATOM     90  C4  SGN d 904     -31.979  83.846  17.294  0.00  0.00     0.095 C 
ATOM     91  C2  SGN d 904     -33.859  82.954  15.970  0.00  0.00     0.081 C 
ATOM     92  C6  SGN d 904     -31.431  86.247  16.958  0.00  0.00     0.067 C 
ATOM     93  S1  SGN d 904     -35.681  81.648  14.395  0.00  0.00     0.156 S 
ATOM     94  H   SGN d 904     -33.749  82.984  18.110  0.00  0.00     0.089 H 
ATOM     95  H   SGN d 904     -35.690  82.399  16.551  0.00  0.00     0.140 HD
ATOM     96  H   SGN d 904     -33.955  80.986  13.589  0.00  0.00     0.231 HD
ATOM     97  H   SGN d 904     -35.686  85.522  16.802  0.00  0.00     0.212 HD
ATOM     98  H   SGN d 904     -31.975  81.362  16.603  0.00  0.00     0.210 HD
ATOM     99  H   SGN d 904     -35.636  79.648  14.667  0.00  0.00     0.231 HD
ATOM    100  H   SGN d 904     -33.182  85.481  17.937  0.00  0.00     0.090 H 
ATOM    101  H   SGN d 904     -36.271  83.543  14.036  0.00  0.00     0.231 HD
ATOM    102  H   SGN d 904     -34.921  84.483  14.899  0.00  0.00     0.131 H 
ATOM    103  H   SGN d 904     -31.277  83.635  16.515  0.00  0.00     0.091 H 
ATOM    104  H   SGN d 904     -33.194  82.752  15.157  0.00  0.00     0.076 H 
ATOM    105  H   SGN d 904     -30.754  86.152  17.781  0.00  0.00     0.080 H 
ATOM    106  H   SGN d 904     -31.808  87.248  16.955  0.00  0.00     0.080 H 
ENDROOT
TORSDOF 33
ENDMDL
MODEL 77
REMARK VINA RESULT:      -6.1      5.545     11.055
REMARK  0 active torsions:
REMARK  status: ('A' for Active; 'I' for Inactive)
REMARK       I    between atoms: C3_1  and  O3_18 
REMARK       I    between atoms: O6_3  and  C6_41 
REMARK       I    between atoms: O6_3  and  S2_27 
REMARK       I    between atoms: C1_4  and  O1_67 
REMARK       I    between atoms: O2_6  and  C2_60 
REMARK       I    between atoms: O2_6  and  S_64 
REMARK       I    between atoms: C5_7  and  C6_41 
REMARK       I    between atoms: C6_9  and  C5_36 
REMARK       I    between atoms: N_10  and  C2_26 
REMARK       I    between atoms: N_10  and  S1_14 
REMARK       I    between atoms: O2_12  and  C2_39 
REMARK       I    between atoms: O2_12  and  S_34 
REMARK       I    between atoms: C3_13  and  O3_44 
REMARK       I    between atoms: S1_14  and  O1S_57 
REMARK       I    between atoms: S1_14  and  O2S_48 
REMARK       I    between atoms: S1_14  and  O3S_38 
REMARK       I    between atoms: C6_16  and  C5_68 
REMARK       I    between atoms: C4_17  and  O4_62 
REMARK       I    between atoms: N_21  and  C2_65 
REMARK       I    between atoms: N_21  and  S1_69 
REMARK       I    between atoms: C3_25  and  O3_30 
REMARK       I    between atoms: O3S_29  and  S1_69 
REMARK       I    between atoms: O4_31  and  C1_42 
REMARK       I    between atoms: O4_31  and  C4_63 
REMARK       I    between atoms: S2_35  and  O6_49 
REMARK       I    between atoms: O1_37  and  C1_61 
REMARK       I    between atoms: O2S_45  and  S1_69 
REMARK       I    between atoms: O3_46  and  C3_55 
REMARK       I    between atoms: C5_47  and  C6_66 
REMARK       I    between atoms: O6_49  and  C6_66 
REMARK       I    between atoms: O1S_52  and  S1_69 
REMARK       I    between atoms: C1_54  and  O4_62 
REMARK       I    between atoms: C4_59  and  O1_67 
ROOT
ATOM      1  C3  UAP d 901     -34.863  78.258  21.790  0.00  0.00     0.086 C 
ATOM      2  O1S UAP d 901     -37.610  78.108  18.037  0.00  0.00    -0.572 OA
ATOM      3  C6  UAP d 901     -34.652  81.270  23.866  0.00  0.00     0.233 C 
ATOM      4  O2  UAP d 901     -35.794  79.066  19.717  0.00  0.00    -0.244 OA
ATOM      5  O3  UAP d 901     -33.973  77.182  22.000  0.00  0.00    -0.389 OA
ATOM      6  O61 UAP d 901     -34.749  80.734  24.994  0.00  0.00    -0.642 OA
ATOM      7  O5  UAP d 901     -34.585  81.068  21.562  0.00  0.00    -0.311 OA
ATOM      8  O2S UAP d 901     -36.343  76.503  19.308  0.00  0.00    -0.572 OA
ATOM      9  S   UAP d 901     -36.283  77.791  18.594  0.00  0.00     0.252 S 
ATOM     10  C5  UAP d 901     -34.677  80.503  22.775  0.00  0.00     0.147 C 
ATOM     11  C2  UAP d 901     -34.577  78.930  20.446  0.00  0.00     0.135 C 
ATOM     12  O62 UAP d 901     -34.542  82.508  23.739  0.00  0.00    -0.642 OA
ATOM     13  O3S UAP d 901     -35.298  77.700  17.500  0.00  0.00    -0.572 OA
ATOM     14  C4  UAP d 901     -34.806  79.171  22.913  0.00  0.00    -0.034 C 
ATOM     15  C1  UAP d 901     -33.904  80.289  20.582  0.00  0.00     0.167 C 
ATOM     16  H   UAP d 901     -35.868  77.897  21.737  0.00  0.00     0.093 H 
ATOM     17  H   UAP d 901     -33.065  77.519  22.047  0.00  0.00     0.210 HD
ATOM     18  H   UAP d 901     -33.890  78.299  19.923  0.00  0.00     0.097 H 
ATOM     19  H   UAP d 901     -34.869  78.781  23.866  0.00  0.00     0.085 H 
ATOM     20  H   UAP d 901     -33.952  80.814  19.651  0.00  0.00     0.134 H 
ATOM     21  O1S IDS d 903     -22.382  84.016  16.935  0.00  0.00    -0.572 OA
ATOM     22  O2  IDS d 903     -24.225  82.893  18.465  0.00  0.00    -0.244 OA
ATOM     23  O5  IDS d 903     -25.515  80.101  20.308  0.00  0.00    -0.340 OA
ATOM     24  C6  IDS d 903     -27.572  78.932  20.380  0.00  0.00     0.206 C 
ATOM     25  O2S IDS d 903     -23.704  82.259  15.944  0.00  0.00    -0.572 OA
ATOM     26  C3  IDS d 903     -26.387  82.366  19.302  0.00  0.00     0.094 C 
ATOM     27  O3S IDS d 903     -24.687  84.421  16.361  0.00  0.00    -0.572 OA
ATOM     28  O3  IDS d 903     -26.935  83.411  18.528  0.00  0.00    -0.390 OA
ATOM     29  O61 IDS d 903     -28.614  78.494  19.858  0.00  0.00    -0.646 OA
ATOM     30  C1  IDS d 903     -24.515  80.771  19.525  0.00  0.00     0.161 C 
ATOM     31  C4  IDS d 903     -27.410  81.227  19.412  0.00  0.00     0.103 C 
ATOM     32  C2  IDS d 903     -25.156  81.826  18.613  0.00  0.00     0.134 C 
ATOM     33  S   IDS d 903     -23.725  83.415  16.858  0.00  0.00     0.252 S 
ATOM     34  C5  IDS d 903     -26.705  79.873  19.567  0.00  0.00     0.152 C 
ATOM     35  O62 IDS d 903     -27.205  78.625  21.537  0.00  0.00    -0.646 OA
ATOM     36  H   IDS d 903     -26.137  82.739  20.272  0.00  0.00     0.091 H 
ATOM     37  H   IDS d 903     -27.162  83.075  17.647  0.00  0.00     0.210 HD
ATOM     38  H   IDS d 903     -23.823  81.237  20.195  0.00  0.00     0.133 H 
ATOM     39  H   IDS d 903     -28.003  81.219  18.522  0.00  0.00     0.092 H 
ATOM     40  H   IDS d 903     -25.413  81.405  17.664  0.00  0.00     0.097 H 
ATOM     41  H   IDS d 903     -26.510  79.449  18.604  0.00  0.00     0.104 H 
ATOM     42  O6  SGN d 902     -32.481  82.482  18.201  0.00  0.00    -0.254 OA
ATOM     43  C1  SGN d 902     -29.146  82.523  20.485  0.00  0.00     0.150 C 
ATOM     44  C5  SGN d 902     -30.920  81.207  19.492  0.00  0.00     0.091 C 
ATOM     45  N   SGN d 902     -28.990  82.729  22.902  0.00  0.00    -0.210 NA
ATOM     46  S1  SGN d 902     -28.222  84.282  23.259  0.00  0.00     0.156 S 
ATOM     47  C4  SGN d 902     -31.735  81.286  20.784  0.00  0.00     0.095 C 
ATOM     48  O5S SGN d 902     -33.750  83.070  15.957  0.00  0.00    -0.572 OA
ATOM     49  C2  SGN d 902     -29.921  82.628  21.796  0.00  0.00     0.081 C 
ATOM     50  S2  SGN d 902     -34.016  82.652  17.347  0.00  0.00     0.251 S 
ATOM     51  O3S SGN d 902     -27.702  84.873  22.012  0.00  0.00    -0.296 OA
ATOM     52  C6  SGN d 902     -31.848  81.207  18.286  0.00  0.00     0.067 C 
ATOM     53  O3  SGN d 902     -31.527  81.488  23.171  0.00  0.00    -0.391 OA
ATOM     54  O2S SGN d 902     -29.217  85.193  23.854  0.00  0.00    -0.296 OA
ATOM     55  O6S SGN d 902     -34.725  81.358  17.352  0.00  0.00    -0.572 OA
ATOM     56  C3  SGN d 902     -30.790  81.389  21.973  0.00  0.00     0.083 C 
ATOM     57  O5  SGN d 902     -30.072  82.363  19.401  0.00  0.00    -0.349 OA
ATOM     58  O1S SGN d 902     -27.113  84.073  24.207  0.00  0.00    -0.296 OA
ATOM     59  O4S SGN d 902     -34.844  83.670  18.022  0.00  0.00    -0.572 OA
ATOM     60  O4  SGN d 902     -32.531  80.108  20.923  0.00  0.00    -0.348 OA
ATOM     61  O1  SGN d 902     -28.220  81.438  20.569  0.00  0.00    -0.348 OA
ATOM     62  H   SGN d 902     -28.584  83.415  20.304  0.00  0.00     0.131 H 
ATOM     63  H   SGN d 902     -30.338  80.309  19.505  0.00  0.00     0.090 H 
ATOM     64  H   SGN d 902     -28.240  82.062  22.719  0.00  0.00     0.140 HD
ATOM     65  H   SGN d 902     -32.370  82.146  20.748  0.00  0.00     0.091 H 
ATOM     66  H   SGN d 902     -30.542  83.499  21.775  0.00  0.00     0.076 H 
ATOM     67  H   SGN d 902     -27.047  84.275  21.619  0.00  0.00     0.231 HD
ATOM     68  H   SGN d 902     -31.282  81.024  17.395  0.00  0.00     0.080 H 
ATOM     69  H   SGN d 902     -32.584  80.437  18.391  0.00  0.00     0.080 H 
ATOM     70  H   SGN d 902     -32.078  80.697  23.277  0.00  0.00     0.210 HD
ATOM     71  H   SGN d 902     -29.561  84.806  24.675  0.00  0.00     0.231 HD
ATOM     72  H   SGN d 902     -30.175  80.516  22.025  0.00  0.00     0.089 H 
ATOM     73  H   SGN d 902     -27.457  83.684  25.027  0.00  0.00     0.231 HD
ATOM     74  O4S SGN d 904     -20.925  81.987  22.809  0.00  0.00    -0.572 OA
ATOM     75  O5S SGN d 904     -19.556  82.943  21.070  0.00  0.00    -0.572 OA
ATOM     76  C3  SGN d 904     -23.248  77.558  19.087  0.00  0.00     0.083 C 
ATOM     77  N   SGN d 904     -22.440  75.302  19.374  0.00  0.00    -0.210 NA
ATOM     78  O5  SGN d 904     -20.542  78.426  19.220  0.00  0.00    -0.350 OA
ATOM     79  O6S SGN d 904     -21.954  83.090  20.922  0.00  0.00    -0.572 OA
ATOM     80  O3S SGN d 904     -21.358  74.621  21.670  0.00  0.00    -0.296 OA
ATOM     81  O4  SGN d 904     -23.866  79.820  18.683  0.00  0.00    -0.348 OA
ATOM     82  S2  SGN d 904     -20.822  82.251  21.361  0.00  0.00     0.251 S 
ATOM     83  O1  SGN d 904     -20.902  76.779  17.573  0.00  0.00    -0.369 OA
ATOM     84  O3  SGN d 904     -24.450  77.240  19.750  0.00  0.00    -0.391 OA
ATOM     85  O2S SGN d 904     -22.381  72.855  20.376  0.00  0.00    -0.296 OA
ATOM     86  C5  SGN d 904     -21.529  79.322  18.698  0.00  0.00     0.091 C 
ATOM     87  O6  SGN d 904     -20.859  80.726  20.485  0.00  0.00    -0.254 OA
ATOM     88  O1S SGN d 904     -20.276  73.814  19.672  0.00  0.00    -0.296 OA
ATOM     89  C1  SGN d 904     -20.815  77.042  18.977  0.00  0.00     0.147 C 
ATOM     90  C4  SGN d 904     -22.886  79.015  19.332  0.00  0.00     0.095 C 
ATOM     91  C2  SGN d 904     -22.138  76.686  19.640  0.00  0.00     0.081 C 
ATOM     92  C6  SGN d 904     -21.101  80.726  19.079  0.00  0.00     0.067 C 
ATOM     93  S1  SGN d 904     -21.575  74.090  20.312  0.00  0.00     0.156 S 
ATOM     94  H   SGN d 904     -23.371  77.393  18.036  0.00  0.00     0.089 H 
ATOM     95  H   SGN d 904     -22.239  75.128  18.389  0.00  0.00     0.140 HD
ATOM     96  H   SGN d 904     -22.214  74.801  22.087  0.00  0.00     0.231 HD
ATOM     97  H   SGN d 904     -20.060  77.005  17.149  0.00  0.00     0.212 HD
ATOM     98  H   SGN d 904     -24.343  77.388  20.702  0.00  0.00     0.210 HD
ATOM     99  H   SGN d 904     -23.233  73.046  20.798  0.00  0.00     0.231 HD
ATOM    100  H   SGN d 904     -21.614  79.220  17.637  0.00  0.00     0.090 H 
ATOM    101  H   SGN d 904     -19.754  74.631  19.635  0.00  0.00     0.231 HD
ATOM    102  H   SGN d 904     -20.019  76.452  19.380  0.00  0.00     0.131 H 
ATOM    103  H   SGN d 904     -22.847  79.210  20.383  0.00  0.00     0.091 H 
ATOM    104  H   SGN d 904     -22.059  76.847  20.694  0.00  0.00     0.076 H 
ATOM    105  H   SGN d 904     -21.878  81.423  18.841  0.00  0.00     0.080 H 
ATOM    106  H   SGN d 904     -20.223  81.014  18.542  0.00  0.00     0.080 H 
ENDROOT
TORSDOF 33
ENDMDL
MODEL 78
REMARK VINA RESULT:      -1.6      4.727      7.768
REMARK  0 active torsions:
REMARK  status: ('A' for Active; 'I' for Inactive)
REMARK       I    between atoms: C3_1  and  O3_18 
REMARK       I    between atoms: O6_3  and  C6_41 
REMARK       I    between atoms: O6_3  and  S2_27 
REMARK       I    between atoms: C1_4  and  O1_67 
REMARK       I    between atoms: O2_6  and  C2_60 
REMARK       I    between atoms: O2_6  and  S_64 
REMARK       I    between atoms: C5_7  and  C6_41 
REMARK       I    between atoms: C6_9  and  C5_36 
REMARK       I    between atoms: N_10  and  C2_26 
REMARK       I    between atoms: N_10  and  S1_14 
REMARK       I    between atoms: O2_12  and  C2_39 
REMARK       I    between atoms: O2_12  and  S_34 
REMARK       I    between atoms: C3_13  and  O3_44 
REMARK       I    between atoms: S1_14  and  O1S_57 
REMARK       I    between atoms: S1_14  and  O2S_48 
REMARK       I    between atoms: S1_14  and  O3S_38 
REMARK       I    between atoms: C6_16  and  C5_68 
REMARK       I    between atoms: C4_17  and  O4_62 
REMARK       I    between atoms: N_21  and  C2_65 
REMARK       I    between atoms: N_21  and  S1_69 
REMARK       I    between atoms: C3_25  and  O3_30 
REMARK       I    between atoms: O3S_29  and  S1_69 
REMARK       I    between atoms: O4_31  and  C1_42 
REMARK       I    between atoms: O4_31  and  C4_63 
REMARK       I    between atoms: S2_35  and  O6_49 
REMARK       I    between atoms: O1_37  and  C1_61 
REMARK       I    between atoms: O2S_45  and  S1_69 
REMARK       I    between atoms: O3_46  and  C3_55 
REMARK       I    between atoms: C5_47  and  C6_66 
REMARK       I    between atoms: O6_49  and  C6_66 
REMARK       I    between atoms: O1S_52  and  S1_69 
REMARK       I    between atoms: C1_54  and  O4_62 
REMARK       I    between atoms: C4_59  and  O1_67 
ROOT
ATOM      1  C3  UAP d 901     -30.707  73.179  20.399  0.00  0.00     0.086 C 
ATOM      2  O1S UAP d 901     -35.241  72.375  19.720  0.00  0.00    -0.572 OA
ATOM      3  C6  UAP d 901     -29.324  73.500  23.777  0.00  0.00     0.233 C 
ATOM      4  O2  UAP d 901     -33.072  73.529  20.722  0.00  0.00    -0.244 OA
ATOM      5  O3  UAP d 901     -29.915  73.482  19.271  0.00  0.00    -0.389 OA
ATOM      6  O61 UAP d 901     -28.317  72.767  23.643  0.00  0.00    -0.642 OA
ATOM      7  O5  UAP d 901     -31.231  74.450  22.875  0.00  0.00    -0.311 OA
ATOM      8  O2S UAP d 901     -33.267  72.377  18.340  0.00  0.00    -0.572 OA
ATOM      9  S   UAP d 901     -34.062  73.158  19.306  0.00  0.00     0.252 S 
ATOM     10  C5  UAP d 901     -30.143  73.677  22.740  0.00  0.00     0.147 C 
ATOM     11  C2  UAP d 901     -31.830  74.206  20.552  0.00  0.00     0.135 C 
ATOM     12  O62 UAP d 901     -29.584  74.061  24.863  0.00  0.00    -0.642 OA
ATOM     13  O3S UAP d 901     -34.502  74.416  18.674  0.00  0.00    -0.572 OA
ATOM     14  C4  UAP d 901     -29.869  73.063  21.574  0.00  0.00    -0.034 C 
ATOM     15  C1  UAP d 901     -31.609  75.174  21.707  0.00  0.00     0.167 C 
ATOM     16  H   UAP d 901     -31.185  72.231  20.267  0.00  0.00     0.093 H 
ATOM     17  H   UAP d 901     -29.486  74.342  19.399  0.00  0.00     0.210 HD
ATOM     18  H   UAP d 901     -31.838  74.794  19.658  0.00  0.00     0.097 H 
ATOM     19  H   UAP d 901     -29.019  72.482  21.515  0.00  0.00     0.085 H 
ATOM     20  H   UAP d 901     -32.517  75.698  21.922  0.00  0.00     0.134 H 
ATOM     21  O1S IDS d 903     -29.714  87.677  21.545  0.00  0.00    -0.572 OA
ATOM     22  O2  IDS d 903     -29.120  85.105  21.369  0.00  0.00    -0.244 OA
ATOM     23  O5  IDS d 903     -27.711  82.310  19.620  0.00  0.00    -0.340 OA
ATOM     24  C6  IDS d 903     -28.461  80.151  19.006  0.00  0.00     0.206 C 
ATOM     25  O2S IDS d 903     -30.919  86.385  19.903  0.00  0.00    -0.572 OA
ATOM     26  C3  IDS d 903     -29.373  82.753  21.606  0.00  0.00     0.094 C 
ATOM     27  O3S IDS d 903     -31.400  86.105  22.250  0.00  0.00    -0.572 OA
ATOM     28  O3  IDS d 903     -30.476  82.964  22.460  0.00  0.00    -0.390 OA
ATOM     29  O61 IDS d 903     -29.345  79.342  18.669  0.00  0.00    -0.646 OA
ATOM     30  C1  IDS d 903     -28.003  83.707  19.786  0.00  0.00     0.161 C 
ATOM     31  C4  IDS d 903     -29.590  81.462  20.806  0.00  0.00     0.103 C 
ATOM     32  C2  IDS d 903     -29.271  83.900  20.628  0.00  0.00     0.134 C 
ATOM     33  S   IDS d 903     -30.338  86.373  21.257  0.00  0.00     0.252 S 
ATOM     34  C5  IDS d 903     -28.889  81.539  19.444  0.00  0.00     0.152 C 
ATOM     35  O62 IDS d 903     -27.240  79.875  18.993  0.00  0.00    -0.646 OA
ATOM     36  H   IDS d 903     -28.481  82.684  22.192  0.00  0.00     0.091 H 
ATOM     37  H   IDS d 903     -31.286  83.027  21.931  0.00  0.00     0.210 HD
ATOM     38  H   IDS d 903     -27.167  84.167  20.271  0.00  0.00     0.133 H 
ATOM     39  H   IDS d 903     -30.641  81.330  20.658  0.00  0.00     0.092 H 
ATOM     40  H   IDS d 903     -30.140  83.938  20.006  0.00  0.00     0.097 H 
ATOM     41  H   IDS d 903     -29.548  81.963  18.715  0.00  0.00     0.104 H 
ATOM     42  O6  SGN d 902     -33.315  78.104  22.708  0.00  0.00    -0.254 OA
ATOM     43  C1  SGN d 902     -29.735  79.981  22.712  0.00  0.00     0.150 C 
ATOM     44  C5  SGN d 902     -31.234  78.457  21.578  0.00  0.00     0.091 C 
ATOM     45  N   SGN d 902     -27.622  79.173  23.603  0.00  0.00    -0.210 NA
ATOM     46  S1  SGN d 902     -27.198  80.193  24.984  0.00  0.00     0.156 S 
ATOM     47  C4  SGN d 902     -30.540  77.255  22.220  0.00  0.00     0.095 C 
ATOM     48  O5S SGN d 902     -35.955  78.167  22.849  0.00  0.00    -0.572 OA
ATOM     49  C2  SGN d 902     -29.008  78.815  23.377  0.00  0.00     0.081 C 
ATOM     50  S2  SGN d 902     -34.825  77.221  22.941  0.00  0.00     0.251 S 
ATOM     51  O3S SGN d 902     -28.109  81.351  25.041  0.00  0.00    -0.296 OA
ATOM     52  C6  SGN d 902     -32.722  78.176  21.413  0.00  0.00     0.067 C 
ATOM     53  O3  SGN d 902     -28.428  76.503  23.087  0.00  0.00    -0.391 OA
ATOM     54  O2S SGN d 902     -27.325  79.410  26.227  0.00  0.00    -0.296 OA
ATOM     55  O6S SGN d 902     -34.953  76.187  21.897  0.00  0.00    -0.572 OA
ATOM     56  C3  SGN d 902     -29.076  77.592  22.471  0.00  0.00     0.083 C 
ATOM     57  O5  SGN d 902     -31.089  79.598  22.437  0.00  0.00    -0.349 OA
ATOM     58  O1S SGN d 902     -25.809  80.664  24.836  0.00  0.00    -0.296 OA
ATOM     59  O4S SGN d 902     -34.820  76.582  24.271  0.00  0.00    -0.572 OA
ATOM     60  O4  SGN d 902     -30.615  76.130  21.343  0.00  0.00    -0.348 OA
ATOM     61  O1  SGN d 902     -29.030  80.365  21.530  0.00  0.00    -0.348 OA
ATOM     62  H   SGN d 902     -29.763  80.831  23.362  0.00  0.00     0.131 H 
ATOM     63  H   SGN d 902     -30.791  78.642  20.621  0.00  0.00     0.090 H 
ATOM     64  H   SGN d 902     -27.302  79.660  22.765  0.00  0.00     0.140 HD
ATOM     65  H   SGN d 902     -31.024  77.022  23.145  0.00  0.00     0.091 H 
ATOM     66  H   SGN d 902     -29.474  78.591  24.314  0.00  0.00     0.076 H 
ATOM     67  H   SGN d 902     -28.027  81.868  24.224  0.00  0.00     0.231 HD
ATOM     68  H   SGN d 902     -33.178  78.965  20.850  0.00  0.00     0.080 H 
ATOM     69  H   SGN d 902     -32.865  77.253  20.892  0.00  0.00     0.080 H 
ATOM     70  H   SGN d 902     -28.475  75.727  22.506  0.00  0.00     0.210 HD
ATOM     71  H   SGN d 902     -26.726  78.647  26.192  0.00  0.00     0.231 HD
ATOM     72  H   SGN d 902     -28.587  77.797  21.542  0.00  0.00     0.089 H 
ATOM     73  H   SGN d 902     -25.210  79.900  24.799  0.00  0.00     0.231 HD
ATOM     74  O4S SGN d 904     -23.635  85.775  21.128  0.00  0.00    -0.572 OA
ATOM     75  O5S SGN d 904     -24.613  87.978  21.188  0.00  0.00    -0.572 OA
ATOM     76  C3  SGN d 904     -27.227  83.883  16.397  0.00  0.00     0.083 C 
ATOM     77  N   SGN d 904     -26.213  83.689  14.215  0.00  0.00    -0.210 NA
ATOM     78  O5  SGN d 904     -25.933  86.403  16.652  0.00  0.00    -0.350 OA
ATOM     79  O6S SGN d 904     -25.937  86.063  21.802  0.00  0.00    -0.572 OA
ATOM     80  O3S SGN d 904     -23.605  83.416  14.044  0.00  0.00    -0.296 OA
ATOM     81  O4  SGN d 904     -28.249  84.287  18.508  0.00  0.00    -0.348 OA
ATOM     82  S2  SGN d 904     -24.868  86.555  20.911  0.00  0.00     0.251 S 
ATOM     83  O1  SGN d 904     -27.248  86.235  14.704  0.00  0.00    -0.369 OA
ATOM     84  O3  SGN d 904     -27.194  82.484  16.565  0.00  0.00    -0.391 OA
ATOM     85  O2S SGN d 904     -24.922  82.501  12.236  0.00  0.00    -0.296 OA
ATOM     86  C5  SGN d 904     -27.011  86.088  17.540  0.00  0.00     0.091 C 
ATOM     87  O6  SGN d 904     -25.385  86.378  19.239  0.00  0.00    -0.254 OA
ATOM     88  O1S SGN d 904     -24.654  84.893  12.454  0.00  0.00    -0.296 OA
ATOM     89  C1  SGN d 904     -26.046  85.811  15.354  0.00  0.00     0.147 C 
ATOM     90  C4  SGN d 904     -27.081  84.574  17.744  0.00  0.00     0.095 C 
ATOM     91  C2  SGN d 904     -26.066  84.297  15.513  0.00  0.00     0.081 C 
ATOM     92  C6  SGN d 904     -26.708  86.760  18.865  0.00  0.00     0.067 C 
ATOM     93  S1  SGN d 904     -24.786  83.622  13.187  0.00  0.00     0.156 S 
ATOM     94  H   SGN d 904     -28.160  84.162  15.952  0.00  0.00     0.089 H 
ATOM     95  H   SGN d 904     -26.929  84.211  13.711  0.00  0.00     0.140 HD
ATOM     96  H   SGN d 904     -23.696  82.579  14.524  0.00  0.00     0.231 HD
ATOM     97  H   SGN d 904     -27.236  87.199  14.601  0.00  0.00     0.212 HD
ATOM     98  H   SGN d 904     -26.351  82.226  16.968  0.00  0.00     0.210 HD
ATOM     99  H   SGN d 904     -25.008  81.668  12.728  0.00  0.00     0.231 HD
ATOM    100  H   SGN d 904     -27.945  86.425  17.142  0.00  0.00     0.090 H 
ATOM    101  H   SGN d 904     -24.566  85.624  13.086  0.00  0.00     0.231 HD
ATOM    102  H   SGN d 904     -25.214  86.117  14.756  0.00  0.00     0.131 H 
ATOM    103  H   SGN d 904     -26.194  84.234  18.235  0.00  0.00     0.091 H 
ATOM    104  H   SGN d 904     -25.152  83.977  15.966  0.00  0.00     0.076 H 
ATOM    105  H   SGN d 904     -27.406  86.438  19.609  0.00  0.00     0.080 H 
ATOM    106  H   SGN d 904     -26.786  87.824  18.778  0.00  0.00     0.080 H 
ENDROOT
TORSDOF 33
ENDMDL
