MODEL 1
REMARK VINA RESULT:      -7.8      0.000      0.000
REMARK  0 active torsions:
REMARK  status: ('A' for Active; 'I' for Inactive)
REMARK       I    between atoms: C1_1  and  O1_26 
REMARK       I    between atoms: C6_2  and  C5_3 
REMARK       I    between atoms: C8_4  and  C7_20 
REMARK       I    between atoms: O2_6  and  C2_15 
REMARK       I    between atoms: O4_7  and  C4_17 
REMARK       I    between atoms: O4_7  and  S_16 
REMARK       I    between atoms: C3_8  and  O3_9 
REMARK       I    between atoms: C6_10  and  C5_28 
REMARK       I    between atoms: C6_10  and  O6_14 
REMARK       I    between atoms: O3_13  and  C3_23 
REMARK       I    between atoms: O3_13  and  C1_30 
REMARK       I    between atoms: C7_20  and  N_27 
REMARK       I    between atoms: C2_24  and  N_27 
ROOT
ATOM      1  C1  ASG d 523      30.186   9.811  -4.846  0.00  0.00     0.151 C 
ATOM      2  C8  ASG d 523      26.475  12.924  -5.103  0.00  0.00    -0.003 C 
ATOM      3  O4  ASG d 523      31.922  11.795  -2.719  0.00  0.00    -0.246 OA
ATOM      4  C6  ASG d 523      33.767   9.824  -3.832  0.00  0.00     0.043 C 
ATOM      5  O5  ASG d 523      31.388   9.529  -4.097  0.00  0.00    -0.349 OA
ATOM      6  O3  ASG d 523      30.597  13.481  -4.292  0.00  0.00    -0.348 OA
ATOM      7  O6  ASG d 523      34.012   8.480  -4.200  0.00  0.00    -0.398 OA
ATOM      8  S   ASG d 523      32.921  12.631  -1.723  0.00  0.00     0.252 S 
ATOM      9  C4  ASG d 523      32.205  11.734  -4.128  0.00  0.00     0.114 C 
ATOM     10  OSB ASG d 523      32.635  12.301  -0.233  0.00  0.00    -0.572 OA
ATOM     11  C7  ASG d 523      27.572  12.271  -4.322  0.00  0.00     0.214 C 
ATOM     12  O7  ASG d 523      27.516  12.359  -3.126  0.00  0.00    -0.274 OA
ATOM     13  OSC ASG d 523      32.726  14.021  -1.986  0.00  0.00    -0.572 OA
ATOM     14  C3  ASG d 523      30.914  12.184  -4.804  0.00  0.00     0.094 C 
ATOM     15  C2  ASG d 523      29.793  11.224  -4.410  0.00  0.00     0.087 C 
ATOM     16  OSA ASG d 523      34.243  12.202  -2.096  0.00  0.00    -0.572 OA
ATOM     17  O1  ASG d 523      29.235   8.955  -4.294  0.00  0.00    -0.369 OA
ATOM     18  N   ASG d 523      28.535  11.646  -5.011  0.00  0.00    -0.349 N 
ATOM     19  C5  ASG d 523      32.511  10.304  -4.534  0.00  0.00     0.090 C 
ATOM     20  H   ASG d 523      30.281   9.711  -5.908  0.00  0.00     0.132 H 
ATOM     21  H   ASG d 523      26.643  12.773  -6.149  0.00  0.00     0.040 H 
ATOM     22  H   ASG d 523      26.463  13.973  -4.893  0.00  0.00     0.040 H 
ATOM     23  H   ASG d 523      25.536  12.494  -4.827  0.00  0.00     0.040 H 
ATOM     24  H   ASG d 523      33.633   9.888  -2.772  0.00  0.00     0.078 H 
ATOM     25  H   ASG d 523      34.599  10.435  -4.115  0.00  0.00     0.078 H 
ATOM     26  H   ASG d 523      33.256   7.931  -3.939  0.00  0.00     0.209 HD
ATOM     27  H   ASG d 523      33.045  12.339  -4.396  0.00  0.00     0.093 H 
ATOM     28  H   ASG d 523      31.024  12.200  -5.868  0.00  0.00     0.091 H 
ATOM     29  H   ASG d 523      29.651  11.231  -3.350  0.00  0.00     0.084 H 
ATOM     30  H   ASG d 523      29.195   9.091  -3.335  0.00  0.00     0.212 HD
ATOM     31  H   ASG d 523      28.387  11.462  -5.966  0.00  0.00     0.163 HD
ATOM     32  H   ASG d 523      32.673  10.217  -5.589  0.00  0.00     0.090 H 
ATOM     33  C6  GCD d 525      33.719  15.394  -6.512  0.00  0.00     0.233 C 
ATOM     34  C5  GCD d 525      32.423  15.437  -5.816  0.00  0.00     0.147 C 
ATOM     35  O6B GCD d 525      33.968  14.494  -7.343  0.00  0.00    -0.642 OA
ATOM     36  O2  GCD d 525      29.335  16.558  -5.813  0.00  0.00    -0.388 OA
ATOM     37  C3  GCD d 525      30.949  16.407  -4.004  0.00  0.00     0.084 C 
ATOM     38  O3  GCD d 525      31.049  15.888  -2.680  0.00  0.00    -0.389 OA
ATOM     39  O6A GCD d 525      34.539  16.291  -6.244  0.00  0.00    -0.642 OA
ATOM     40  C2  GCD d 525      29.795  15.719  -4.754  0.00  0.00     0.111 C 
ATOM     41  O5  GCD d 525      31.314  14.603  -6.263  0.00  0.00    -0.311 OA
ATOM     42  C4  GCD d 525      32.253  16.258  -4.769  0.00  0.00    -0.034 C 
ATOM     43  C1  GCD d 525      30.234  14.379  -5.357  0.00  0.00     0.165 C 
ATOM     44  H   GCD d 525      29.052  17.412  -5.450  0.00  0.00     0.210 HD
ATOM     45  H   GCD d 525      30.743  17.454  -3.933  0.00  0.00     0.093 H 
ATOM     46  H   GCD d 525      31.236  14.937  -2.718  0.00  0.00     0.210 HD
ATOM     47  H   GCD d 525      29.014  15.542  -4.045  0.00  0.00     0.095 H 
ATOM     48  H   GCD d 525      33.059  16.825  -4.464  0.00  0.00     0.085 H 
ATOM     49  H   GCD d 525      29.434  13.930  -5.909  0.00  0.00     0.134 H 
ENDROOT
TORSDOF 12
ENDMDL
MODEL 2
REMARK VINA RESULT:      -7.7      1.999      3.156
REMARK  0 active torsions:
REMARK  status: ('A' for Active; 'I' for Inactive)
REMARK       I    between atoms: C1_1  and  O1_26 
REMARK       I    between atoms: C6_2  and  C5_3 
REMARK       I    between atoms: C8_4  and  C7_20 
REMARK       I    between atoms: O2_6  and  C2_15 
REMARK       I    between atoms: O4_7  and  C4_17 
REMARK       I    between atoms: O4_7  and  S_16 
REMARK       I    between atoms: C3_8  and  O3_9 
REMARK       I    between atoms: C6_10  and  C5_28 
REMARK       I    between atoms: C6_10  and  O6_14 
REMARK       I    between atoms: O3_13  and  C3_23 
REMARK       I    between atoms: O3_13  and  C1_30 
REMARK       I    between atoms: C7_20  and  N_27 
REMARK       I    between atoms: C2_24  and  N_27 
ROOT
ATOM      1  C1  ASG d 523      28.640  13.433  -4.497  0.00  0.00     0.151 C 
ATOM      2  C8  ASG d 523      27.850  18.201  -4.092  0.00  0.00    -0.003 C 
ATOM      3  O4  ASG d 523      31.826  13.696  -3.380  0.00  0.00    -0.246 OA
ATOM      4  C6  ASG d 523      31.530  11.093  -4.671  0.00  0.00     0.043 C 
ATOM      5  O5  ASG d 523      29.574  12.397  -4.125  0.00  0.00    -0.349 OA
ATOM      6  O3  ASG d 523      31.387  15.953  -4.716  0.00  0.00    -0.348 OA
ATOM      7  O6  ASG d 523      30.745   9.932  -4.869  0.00  0.00    -0.398 OA
ATOM      8  S   ASG d 523      33.394  13.629  -2.900  0.00  0.00     0.252 S 
ATOM      9  C4  ASG d 523      31.502  13.576  -4.776  0.00  0.00     0.114 C 
ATOM     10  OSB ASG d 523      33.503  13.444  -1.362  0.00  0.00    -0.572 OA
ATOM     11  C7  ASG d 523      28.492  16.944  -3.597  0.00  0.00     0.214 C 
ATOM     12  O7  ASG d 523      28.921  16.957  -2.475  0.00  0.00    -0.274 OA
ATOM     13  OSC ASG d 523      34.023  14.842  -3.315  0.00  0.00    -0.572 OA
ATOM     14  C3  ASG d 523      30.633  14.793  -5.078  0.00  0.00     0.094 C 
ATOM     15  C2  ASG d 523      29.385  14.736  -4.200  0.00  0.00     0.087 C 
ATOM     16  OSA ASG d 523      33.934  12.488  -3.591  0.00  0.00    -0.572 OA
ATOM     17  O1  ASG d 523      27.630  13.335  -3.541  0.00  0.00    -0.369 OA
ATOM     18  N   ASG d 523      28.548  15.904  -4.438  0.00  0.00    -0.349 N 
ATOM     19  C5  ASG d 523      30.695  12.313  -5.015  0.00  0.00     0.090 C 
ATOM     20  H   ASG d 523      28.278  13.376  -5.502  0.00  0.00     0.132 H 
ATOM     21  H   ASG d 523      27.513  18.058  -5.098  0.00  0.00     0.040 H 
ATOM     22  H   ASG d 523      28.562  19.000  -4.066  0.00  0.00     0.040 H 
ATOM     23  H   ASG d 523      27.016  18.445  -3.469  0.00  0.00     0.040 H 
ATOM     24  H   ASG d 523      31.841  11.147  -3.649  0.00  0.00     0.078 H 
ATOM     25  H   ASG d 523      32.396  11.057  -5.298  0.00  0.00     0.078 H 
ATOM     26  H   ASG d 523      29.962   9.970  -4.297  0.00  0.00     0.209 HD
ATOM     27  H   ASG d 523      32.376  13.529  -5.390  0.00  0.00     0.093 H 
ATOM     28  H   ASG d 523      30.353  14.816  -6.111  0.00  0.00     0.091 H 
ATOM     29  H   ASG d 523      29.656  14.750  -3.166  0.00  0.00     0.084 H 
ATOM     30  H   ASG d 523      28.018  13.393  -2.654  0.00  0.00     0.212 HD
ATOM     31  H   ASG d 523      27.999  15.929  -5.255  0.00  0.00     0.163 HD
ATOM     32  H   ASG d 523      30.390  12.223  -6.037  0.00  0.00     0.090 H 
ATOM     33  C6  GCD d 525      34.006  15.611  -8.087  0.00  0.00     0.233 C 
ATOM     34  C5  GCD d 525      33.357  16.414  -7.037  0.00  0.00     0.147 C 
ATOM     35  O6B GCD d 525      33.338  14.825  -8.792  0.00  0.00    -0.642 OA
ATOM     36  O2  GCD d 525      31.867  19.235  -6.254  0.00  0.00    -0.388 OA
ATOM     37  C3  GCD d 525      33.541  17.958  -5.042  0.00  0.00     0.084 C 
ATOM     38  O3  GCD d 525      33.749  17.395  -3.749  0.00  0.00    -0.389 OA
ATOM     39  O6A GCD d 525      35.231  15.761  -8.241  0.00  0.00    -0.642 OA
ATOM     40  C2  GCD d 525      32.041  18.217  -5.269  0.00  0.00     0.111 C 
ATOM     41  O5  GCD d 525      31.904  16.510  -6.970  0.00  0.00    -0.311 OA
ATOM     42  C4  GCD d 525      34.106  17.074  -6.141  0.00  0.00    -0.034 C 
ATOM     43  C1  GCD d 525      31.316  16.955  -5.748  0.00  0.00     0.165 C 
ATOM     44  H   GCD d 525      32.320  20.044  -5.967  0.00  0.00     0.210 HD
ATOM     45  H   GCD d 525      34.067  18.889  -5.085  0.00  0.00     0.093 H 
ATOM     46  H   GCD d 525      33.281  16.548  -3.686  0.00  0.00     0.210 HD
ATOM     47  H   GCD d 525      31.626  18.524  -4.332  0.00  0.00     0.095 H 
ATOM     48  H   GCD d 525      35.131  16.975  -6.202  0.00  0.00     0.085 H 
ATOM     49  H   GCD d 525      30.283  17.158  -5.939  0.00  0.00     0.134 H 
ENDROOT
TORSDOF 12
ENDMDL
MODEL 3
REMARK VINA RESULT:      -7.5      2.433      5.450
REMARK  0 active torsions:
REMARK  status: ('A' for Active; 'I' for Inactive)
REMARK       I    between atoms: C1_1  and  O1_26 
REMARK       I    between atoms: C6_2  and  C5_3 
REMARK       I    between atoms: C8_4  and  C7_20 
REMARK       I    between atoms: O2_6  and  C2_15 
REMARK       I    between atoms: O4_7  and  C4_17 
REMARK       I    between atoms: O4_7  and  S_16 
REMARK       I    between atoms: C3_8  and  O3_9 
REMARK       I    between atoms: C6_10  and  C5_28 
REMARK       I    between atoms: C6_10  and  O6_14 
REMARK       I    between atoms: O3_13  and  C3_23 
REMARK       I    between atoms: O3_13  and  C1_30 
REMARK       I    between atoms: C7_20  and  N_27 
REMARK       I    between atoms: C2_24  and  N_27 
ROOT
ATOM      1  C1  ASG d 523      33.735  12.576  -1.980  0.00  0.00     0.151 C 
ATOM      2  C8  ASG d 523      30.593  16.095  -3.107  0.00  0.00    -0.003 C 
ATOM      3  O4  ASG d 523      33.573  11.209  -5.074  0.00  0.00    -0.246 OA
ATOM      4  C6  ASG d 523      34.766   9.242  -3.276  0.00  0.00     0.043 C 
ATOM      5  O5  ASG d 523      34.547  11.540  -2.573  0.00  0.00    -0.349 OA
ATOM      6  O3  ASG d 523      31.137  12.179  -4.632  0.00  0.00    -0.348 OA
ATOM      7  O6  ASG d 523      35.674   8.969  -2.225  0.00  0.00    -0.398 OA
ATOM      8  S   ASG d 523      33.596  10.388  -6.494  0.00  0.00     0.252 S 
ATOM      9  C4  ASG d 523      32.850  10.674  -3.952  0.00  0.00     0.114 C 
ATOM     10  OSB ASG d 523      34.681  10.951  -7.452  0.00  0.00    -0.572 OA
ATOM     11  C7  ASG d 523      31.710  15.178  -3.494  0.00  0.00     0.214 C 
ATOM     12  O7  ASG d 523      32.318  15.450  -4.493  0.00  0.00    -0.274 OA
ATOM     13  OSC ASG d 523      32.296  10.496  -7.075  0.00  0.00    -0.572 OA
ATOM     14  C3  ASG d 523      31.934  11.807  -3.504  0.00  0.00     0.094 C 
ATOM     15  C2  ASG d 523      32.792  13.006  -3.105  0.00  0.00     0.087 C 
ATOM     16  OSA ASG d 523      33.899   9.032  -6.121  0.00  0.00    -0.572 OA
ATOM     17  O1  ASG d 523      34.623  13.634  -1.791  0.00  0.00    -0.369 OA
ATOM     18  N   ASG d 523      31.945  14.121  -2.705  0.00  0.00    -0.349 N 
ATOM     19  C5  ASG d 523      33.814  10.335  -2.829  0.00  0.00     0.090 C 
ATOM     20  H   ASG d 523      33.220  12.291  -1.086  0.00  0.00     0.132 H 
ATOM     21  H   ASG d 523      30.138  15.743  -2.205  0.00  0.00     0.040 H 
ATOM     22  H   ASG d 523      29.864  16.118  -3.889  0.00  0.00     0.040 H 
ATOM     23  H   ASG d 523      30.979  17.080  -2.950  0.00  0.00     0.040 H 
ATOM     24  H   ASG d 523      35.305   9.567  -4.142  0.00  0.00     0.078 H 
ATOM     25  H   ASG d 523      34.216   8.358  -3.519  0.00  0.00     0.078 H 
ATOM     26  H   ASG d 523      36.171   9.774  -2.010  0.00  0.00     0.209 HD
ATOM     27  H   ASG d 523      32.315   9.784  -4.205  0.00  0.00     0.093 H 
ATOM     28  H   ASG d 523      31.324  11.503  -2.679  0.00  0.00     0.091 H 
ATOM     29  H   ASG d 523      33.376  13.339  -3.937  0.00  0.00     0.084 H 
ATOM     30  H   ASG d 523      35.058  13.846  -2.631  0.00  0.00     0.212 HD
ATOM     31  H   ASG d 523      31.526  14.096  -1.815  0.00  0.00     0.163 HD
ATOM     32  H   ASG d 523      33.300   9.986  -1.957  0.00  0.00     0.090 H 
ATOM     33  C6  GCD d 525      28.717   8.654  -4.400  0.00  0.00     0.233 C 
ATOM     34  C5  GCD d 525      28.915  10.055  -4.808  0.00  0.00     0.147 C 
ATOM     35  O6B GCD d 525      28.999   8.281  -3.241  0.00  0.00    -0.642 OA
ATOM     36  O2  GCD d 525      27.613  13.061  -5.055  0.00  0.00    -0.388 OA
ATOM     37  C3  GCD d 525      28.980  11.811  -6.627  0.00  0.00     0.084 C 
ATOM     38  O3  GCD d 525      30.172  11.969  -7.393  0.00  0.00    -0.389 OA
ATOM     39  O6A GCD d 525      28.249   7.875  -5.250  0.00  0.00    -0.642 OA
ATOM     40  C2  GCD d 525      28.958  12.824  -5.470  0.00  0.00     0.111 C 
ATOM     41  O5  GCD d 525      29.191  11.084  -3.813  0.00  0.00    -0.311 OA
ATOM     42  C4  GCD d 525      28.829  10.393  -6.102  0.00  0.00    -0.034 C 
ATOM     43  C1  GCD d 525      29.752  12.318  -4.260  0.00  0.00     0.165 C 
ATOM     44  H   GCD d 525      27.095  13.384  -5.809  0.00  0.00     0.210 HD
ATOM     45  H   GCD d 525      28.147  11.999  -7.271  0.00  0.00     0.093 H 
ATOM     46  H   GCD d 525      30.943  11.802  -6.829  0.00  0.00     0.210 HD
ATOM     47  H   GCD d 525      29.408  13.727  -5.828  0.00  0.00     0.095 H 
ATOM     48  H   GCD d 525      28.649   9.642  -6.787  0.00  0.00     0.085 H 
ATOM     49  H   GCD d 525      29.697  13.014  -3.449  0.00  0.00     0.134 H 
ENDROOT
TORSDOF 12
ENDMDL
MODEL 4
REMARK VINA RESULT:      -7.5      3.042      5.273
REMARK  0 active torsions:
REMARK  status: ('A' for Active; 'I' for Inactive)
REMARK       I    between atoms: C1_1  and  O1_26 
REMARK       I    between atoms: C6_2  and  C5_3 
REMARK       I    between atoms: C8_4  and  C7_20 
REMARK       I    between atoms: O2_6  and  C2_15 
REMARK       I    between atoms: O4_7  and  C4_17 
REMARK       I    between atoms: O4_7  and  S_16 
REMARK       I    between atoms: C3_8  and  O3_9 
REMARK       I    between atoms: C6_10  and  C5_28 
REMARK       I    between atoms: C6_10  and  O6_14 
REMARK       I    between atoms: O3_13  and  C3_23 
REMARK       I    between atoms: O3_13  and  C1_30 
REMARK       I    between atoms: C7_20  and  N_27 
REMARK       I    between atoms: C2_24  and  N_27 
ROOT
ATOM      1  C1  ASG d 523      32.300  12.265  -1.882  0.00  0.00     0.151 C 
ATOM      2  C8  ASG d 523      33.375  16.296  -4.358  0.00  0.00    -0.003 C 
ATOM      3  O4  ASG d 523      34.042  10.291  -4.012  0.00  0.00    -0.246 OA
ATOM      4  C6  ASG d 523      32.281   8.583  -2.428  0.00  0.00     0.043 C 
ATOM      5  O5  ASG d 523      32.657  10.872  -1.763  0.00  0.00    -0.349 OA
ATOM      6  O3  ASG d 523      33.065  12.238  -5.537  0.00  0.00    -0.348 OA
ATOM      7  O6  ASG d 523      31.734   8.267  -1.162  0.00  0.00    -0.398 OA
ATOM      8  S   ASG d 523      34.798   9.176  -4.949  0.00  0.00     0.252 S 
ATOM      9  C4  ASG d 523      32.611  10.420  -4.070  0.00  0.00     0.114 C 
ATOM     10  OSB ASG d 523      36.271   8.972  -4.502  0.00  0.00    -0.572 OA
ATOM     11  C7  ASG d 523      33.757  14.940  -3.853  0.00  0.00     0.214 C 
ATOM     12  O7  ASG d 523      34.925  14.661  -3.871  0.00  0.00    -0.274 OA
ATOM     13  OSC ASG d 523      34.732   9.634  -6.300  0.00  0.00    -0.572 OA
ATOM     14  C3  ASG d 523      32.364  11.901  -4.337  0.00  0.00     0.094 C 
ATOM     15  C2  ASG d 523      32.960  12.713  -3.189  0.00  0.00     0.087 C 
ATOM     16  OSA ASG d 523      34.035   7.971  -4.760  0.00  0.00    -0.572 OA
ATOM     17  O1  ASG d 523      33.009  12.886  -0.855  0.00  0.00    -0.369 OA
ATOM     18  N   ASG d 523      32.773  14.137  -3.429  0.00  0.00    -0.349 N 
ATOM     19  C5  ASG d 523      32.002  10.043  -2.732  0.00  0.00     0.090 C 
ATOM     20  H   ASG d 523      31.249  12.467  -1.853  0.00  0.00     0.132 H 
ATOM     21  H   ASG d 523      32.314  16.417  -4.288  0.00  0.00     0.040 H 
ATOM     22  H   ASG d 523      33.680  16.395  -5.379  0.00  0.00     0.040 H 
ATOM     23  H   ASG d 523      33.859  17.045  -3.767  0.00  0.00     0.040 H 
ATOM     24  H   ASG d 523      33.338   8.415  -2.416  0.00  0.00     0.078 H 
ATOM     25  H   ASG d 523      31.838   7.965  -3.180  0.00  0.00     0.078 H 
ATOM     26  H   ASG d 523      32.140   8.830  -0.485  0.00  0.00     0.209 HD
ATOM     27  H   ASG d 523      32.179   9.787  -4.816  0.00  0.00     0.093 H 
ATOM     28  H   ASG d 523      31.318  12.105  -4.425  0.00  0.00     0.091 H 
ATOM     29  H   ASG d 523      34.013  12.543  -3.118  0.00  0.00     0.084 H 
ATOM     30  H   ASG d 523      33.951  12.667  -0.935  0.00  0.00     0.212 HD
ATOM     31  H   ASG d 523      31.883  14.527  -3.272  0.00  0.00     0.163 HD
ATOM     32  H   ASG d 523      30.940  10.182  -2.725  0.00  0.00     0.090 H 
ATOM     33  C6  GCD d 525      30.259  10.192  -8.044  0.00  0.00     0.233 C 
ATOM     34  C5  GCD d 525      31.288  11.225  -7.840  0.00  0.00     0.147 C 
ATOM     35  O6B GCD d 525      29.311  10.068  -7.240  0.00  0.00    -0.642 OA
ATOM     36  O2  GCD d 525      32.250  14.308  -8.440  0.00  0.00    -0.388 OA
ATOM     37  C3  GCD d 525      33.520  12.237  -8.463  0.00  0.00     0.084 C 
ATOM     38  O3  GCD d 525      34.709  11.688  -7.902  0.00  0.00    -0.389 OA
ATOM     39  O6A GCD d 525      30.374   9.466  -9.048  0.00  0.00    -0.642 OA
ATOM     40  C2  GCD d 525      33.056  13.448  -7.635  0.00  0.00     0.111 C 
ATOM     41  O5  GCD d 525      31.088  12.285  -6.859  0.00  0.00    -0.311 OA
ATOM     42  C4  GCD d 525      32.413  11.201  -8.568  0.00  0.00    -0.034 C 
ATOM     43  C1  GCD d 525      32.231  13.016  -6.417  0.00  0.00     0.165 C 
ATOM     44  H   GCD d 525      32.757  14.593  -9.217  0.00  0.00     0.210 HD
ATOM     45  H   GCD d 525      33.744  12.560  -9.458  0.00  0.00     0.093 H 
ATOM     46  H   GCD d 525      34.531  11.386  -6.997  0.00  0.00     0.210 HD
ATOM     47  H   GCD d 525      33.934  13.959  -7.297  0.00  0.00     0.095 H 
ATOM     48  H   GCD d 525      32.536  10.430  -9.242  0.00  0.00     0.085 H 
ATOM     49  H   GCD d 525      31.882  13.868  -5.872  0.00  0.00     0.134 H 
ENDROOT
TORSDOF 12
ENDMDL
MODEL 5
REMARK VINA RESULT:      -7.5      2.762      5.952
REMARK  0 active torsions:
REMARK  status: ('A' for Active; 'I' for Inactive)
REMARK       I    between atoms: C1_1  and  O1_26 
REMARK       I    between atoms: C6_2  and  C5_3 
REMARK       I    between atoms: C8_4  and  C7_20 
REMARK       I    between atoms: O2_6  and  C2_15 
REMARK       I    between atoms: O4_7  and  C4_17 
REMARK       I    between atoms: O4_7  and  S_16 
REMARK       I    between atoms: C3_8  and  O3_9 
REMARK       I    between atoms: C6_10  and  C5_28 
REMARK       I    between atoms: C6_10  and  O6_14 
REMARK       I    between atoms: O3_13  and  C3_23 
REMARK       I    between atoms: O3_13  and  C1_30 
REMARK       I    between atoms: C7_20  and  N_27 
REMARK       I    between atoms: C2_24  and  N_27 
ROOT
ATOM      1  C1  ASG d 523      33.626  13.005  -2.145  0.00  0.00     0.151 C 
ATOM      2  C8  ASG d 523      35.649   8.673  -2.964  0.00  0.00    -0.003 C 
ATOM      3  O4  ASG d 523      30.838  12.221  -3.900  0.00  0.00    -0.246 OA
ATOM      4  C6  ASG d 523      30.908  15.120  -3.555  0.00  0.00     0.043 C 
ATOM      5  O5  ASG d 523      32.375  13.717  -2.252  0.00  0.00    -0.349 OA
ATOM      6  O3  ASG d 523      32.805  10.935  -5.143  0.00  0.00    -0.348 OA
ATOM      7  O6  ASG d 523      31.145  16.224  -2.702  0.00  0.00    -0.398 OA
ATOM      8  S   ASG d 523      29.438  12.041  -4.737  0.00  0.00     0.252 S 
ATOM      9  C4  ASG d 523      31.899  13.023  -4.448  0.00  0.00     0.114 C 
ATOM     10  OSB ASG d 523      28.323  11.431  -3.844  0.00  0.00    -0.572 OA
ATOM     11  C7  ASG d 523      34.439   9.514  -2.708  0.00  0.00     0.214 C 
ATOM     12  O7  ASG d 523      33.441   8.942  -2.362  0.00  0.00    -0.274 OA
ATOM     13  OSC ASG d 523      29.713  11.199  -5.858  0.00  0.00    -0.572 OA
ATOM     14  C3  ASG d 523      33.127  12.121  -4.410  0.00  0.00     0.094 C 
ATOM     15  C2  ASG d 523      33.405  11.729  -2.960  0.00  0.00     0.087 C 
ATOM     16  OSA ASG d 523      29.090  13.375  -5.149  0.00  0.00    -0.572 OA
ATOM     17  O1  ASG d 523      33.677  12.609  -0.809  0.00  0.00    -0.369 OA
ATOM     18  N   ASG d 523      34.553  10.836  -2.891  0.00  0.00    -0.349 N 
ATOM     19  C5  ASG d 523      32.140  14.236  -3.567  0.00  0.00     0.090 C 
ATOM     20  H   ASG d 523      34.489  13.557  -2.456  0.00  0.00     0.132 H 
ATOM     21  H   ASG d 523      36.463   9.300  -3.263  0.00  0.00     0.040 H 
ATOM     22  H   ASG d 523      35.437   7.969  -3.741  0.00  0.00     0.040 H 
ATOM     23  H   ASG d 523      35.914   8.149  -2.070  0.00  0.00     0.040 H 
ATOM     24  H   ASG d 523      30.068  14.562  -3.196  0.00  0.00     0.078 H 
ATOM     25  H   ASG d 523      30.699  15.466  -4.546  0.00  0.00     0.078 H 
ATOM     26  H   ASG d 523      31.333  15.904  -1.805  0.00  0.00     0.209 HD
ATOM     27  H   ASG d 523      31.672  13.373  -5.433  0.00  0.00     0.093 H 
ATOM     28  H   ASG d 523      33.980  12.617  -4.824  0.00  0.00     0.091 H 
ATOM     29  H   ASG d 523      32.571  11.199  -2.551  0.00  0.00     0.084 H 
ATOM     30  H   ASG d 523      32.872  12.116  -0.587  0.00  0.00     0.212 HD
ATOM     31  H   ASG d 523      35.454  11.222  -2.982  0.00  0.00     0.163 HD
ATOM     32  H   ASG d 523      32.962  14.824  -3.919  0.00  0.00     0.090 H 
ATOM     33  C6  GCD d 525      33.022  12.921  -8.931  0.00  0.00     0.233 C 
ATOM     34  C5  GCD d 525      33.094  11.700  -8.112  0.00  0.00     0.147 C 
ATOM     35  O6B GCD d 525      33.637  13.954  -8.592  0.00  0.00    -0.642 OA
ATOM     36  O2  GCD d 525      34.647   8.864  -7.529  0.00  0.00    -0.388 OA
ATOM     37  C3  GCD d 525      32.271   9.365  -7.596  0.00  0.00     0.084 C 
ATOM     38  O3  GCD d 525      31.105   9.205  -6.790  0.00  0.00    -0.389 OA
ATOM     39  O6A GCD d 525      32.336  12.870  -9.968  0.00  0.00    -0.642 OA
ATOM     40  C2  GCD d 525      33.533   9.252  -6.724  0.00  0.00     0.111 C 
ATOM     41  O5  GCD d 525      34.080  11.581  -7.045  0.00  0.00    -0.311 OA
ATOM     42  C4  GCD d 525      32.257  10.681  -8.355  0.00  0.00    -0.034 C 
ATOM     43  C1  GCD d 525      33.872  10.584  -6.045  0.00  0.00     0.165 C 
ATOM     44  H   GCD d 525      34.450   8.021  -7.967  0.00  0.00     0.210 HD
ATOM     45  H   GCD d 525      32.277   8.581  -8.324  0.00  0.00     0.093 H 
ATOM     46  H   GCD d 525      31.076   9.907  -6.121  0.00  0.00     0.210 HD
ATOM     47  H   GCD d 525      33.337   8.518  -5.971  0.00  0.00     0.095 H 
ATOM     48  H   GCD d 525      31.559  10.798  -9.105  0.00  0.00     0.085 H 
ATOM     49  H   GCD d 525      34.773  10.503  -5.474  0.00  0.00     0.134 H 
ENDROOT
TORSDOF 12
ENDMDL
MODEL 6
REMARK VINA RESULT:      -7.5      3.321      5.900
REMARK  0 active torsions:
REMARK  status: ('A' for Active; 'I' for Inactive)
REMARK       I    between atoms: C1_1  and  O1_26 
REMARK       I    between atoms: C6_2  and  C5_3 
REMARK       I    between atoms: C8_4  and  C7_20 
REMARK       I    between atoms: O2_6  and  C2_15 
REMARK       I    between atoms: O4_7  and  C4_17 
REMARK       I    between atoms: O4_7  and  S_16 
REMARK       I    between atoms: C3_8  and  O3_9 
REMARK       I    between atoms: C6_10  and  C5_28 
REMARK       I    between atoms: C6_10  and  O6_14 
REMARK       I    between atoms: O3_13  and  C3_23 
REMARK       I    between atoms: O3_13  and  C1_30 
REMARK       I    between atoms: C7_20  and  N_27 
REMARK       I    between atoms: C2_24  and  N_27 
ROOT
ATOM      1  C1  ASG d 523      33.891  14.260  -8.223  0.00  0.00     0.151 C 
ATOM      2  C8  ASG d 523      34.119  17.419  -4.549  0.00  0.00    -0.003 C 
ATOM      3  O4  ASG d 523      31.721  12.247  -6.578  0.00  0.00    -0.246 OA
ATOM      4  C6  ASG d 523      32.854  10.733  -8.803  0.00  0.00     0.043 C 
ATOM      5  O5  ASG d 523      33.139  13.127  -8.706  0.00  0.00    -0.349 OA
ATOM      6  O3  ASG d 523      33.273  13.269  -4.676  0.00  0.00    -0.348 OA
ATOM      7  O6  ASG d 523      33.243  10.705 -10.163  0.00  0.00    -0.398 OA
ATOM      8  S   ASG d 523      30.704  11.134  -5.929  0.00  0.00     0.252 S 
ATOM      9  C4  ASG d 523      33.129  11.965  -6.662  0.00  0.00     0.114 C 
ATOM     10  OSB ASG d 523      29.222  11.483  -6.232  0.00  0.00    -0.572 OA
ATOM     11  C7  ASG d 523      33.342  16.449  -5.382  0.00  0.00     0.214 C 
ATOM     12  O7  ASG d 523      32.145  16.501  -5.304  0.00  0.00    -0.274 OA
ATOM     13  OSC ASG d 523      30.945  11.101  -4.522  0.00  0.00    -0.572 OA
ATOM     14  C3  ASG d 523      33.804  13.160  -6.000  0.00  0.00     0.094 C 
ATOM     15  C2  ASG d 523      33.434  14.425  -6.772  0.00  0.00     0.087 C 
ATOM     16  OSA ASG d 523      31.076   9.896  -6.560  0.00  0.00    -0.572 OA
ATOM     17  O1  ASG d 523      33.359  15.342  -8.924  0.00  0.00    -0.369 OA
ATOM     18  N   ASG d 523      34.035  15.593  -6.144  0.00  0.00    -0.349 N 
ATOM     19  C5  ASG d 523      33.557  11.889  -8.116  0.00  0.00     0.090 C 
ATOM     20  H   ASG d 523      34.953  14.174  -8.321  0.00  0.00     0.132 H 
ATOM     21  H   ASG d 523      35.167  17.269  -4.710  0.00  0.00     0.040 H 
ATOM     22  H   ASG d 523      33.892  17.264  -3.515  0.00  0.00     0.040 H 
ATOM     23  H   ASG d 523      33.856  18.418  -4.826  0.00  0.00     0.040 H 
ATOM     24  H   ASG d 523      31.794  10.864  -8.734  0.00  0.00     0.078 H 
ATOM     25  H   ASG d 523      33.123   9.812  -8.330  0.00  0.00     0.078 H 
ATOM     26  H   ASG d 523      32.996  11.542 -10.587  0.00  0.00     0.209 HD
ATOM     27  H   ASG d 523      33.382  11.036  -6.197  0.00  0.00     0.093 H 
ATOM     28  H   ASG d 523      34.868  13.040  -5.985  0.00  0.00     0.091 H 
ATOM     29  H   ASG d 523      32.375  14.573  -6.759  0.00  0.00     0.084 H 
ATOM     30  H   ASG d 523      32.398  15.368  -8.797  0.00  0.00     0.212 HD
ATOM     31  H   ASG d 523      34.995  15.761  -6.287  0.00  0.00     0.163 HD
ATOM     32  H   ASG d 523      34.611  11.735  -8.212  0.00  0.00     0.090 H 
ATOM     33  C6  GCD d 525      35.442   9.860  -3.258  0.00  0.00     0.233 C 
ATOM     34  C5  GCD d 525      34.753  11.138  -3.017  0.00  0.00     0.147 C 
ATOM     35  O6B GCD d 525      36.287   9.752  -4.173  0.00  0.00    -0.642 OA
ATOM     36  O2  GCD d 525      34.751  14.006  -1.414  0.00  0.00    -0.388 OA
ATOM     37  C3  GCD d 525      32.935  12.453  -1.850  0.00  0.00     0.084 C 
ATOM     38  O3  GCD d 525      31.619  12.450  -2.398  0.00  0.00    -0.389 OA
ATOM     39  O6A GCD d 525      35.154   8.909  -2.509  0.00  0.00    -0.642 OA
ATOM     40  C2  GCD d 525      33.704  13.696  -2.332  0.00  0.00     0.111 C 
ATOM     41  O5  GCD d 525      35.221  12.363  -3.655  0.00  0.00    -0.311 OA
ATOM     42  C4  GCD d 525      33.695  11.183  -2.196  0.00  0.00    -0.034 C 
ATOM     43  C1  GCD d 525      34.326  13.473  -3.715  0.00  0.00     0.165 C 
ATOM     44  H   GCD d 525      34.376  14.150  -0.531  0.00  0.00     0.210 HD
ATOM     45  H   GCD d 525      32.848  12.488  -0.785  0.00  0.00     0.093 H 
ATOM     46  H   GCD d 525      31.672  12.418  -3.366  0.00  0.00     0.210 HD
ATOM     47  H   GCD d 525      33.003  14.501  -2.391  0.00  0.00     0.095 H 
ATOM     48  H   GCD d 525      33.375  10.299  -1.771  0.00  0.00     0.085 H 
ATOM     49  H   GCD d 525      34.890  14.330  -4.021  0.00  0.00     0.134 H 
ENDROOT
TORSDOF 12
ENDMDL
MODEL 7
REMARK VINA RESULT:      -7.4      2.542      6.046
REMARK  0 active torsions:
REMARK  status: ('A' for Active; 'I' for Inactive)
REMARK       I    between atoms: C1_1  and  O1_26 
REMARK       I    between atoms: C6_2  and  C5_3 
REMARK       I    between atoms: C8_4  and  C7_20 
REMARK       I    between atoms: O2_6  and  C2_15 
REMARK       I    between atoms: O4_7  and  C4_17 
REMARK       I    between atoms: O4_7  and  S_16 
REMARK       I    between atoms: C3_8  and  O3_9 
REMARK       I    between atoms: C6_10  and  C5_28 
REMARK       I    between atoms: C6_10  and  O6_14 
REMARK       I    between atoms: O3_13  and  C3_23 
REMARK       I    between atoms: O3_13  and  C1_30 
REMARK       I    between atoms: C7_20  and  N_27 
REMARK       I    between atoms: C2_24  and  N_27 
ROOT
ATOM      1  C1  ASG d 523      33.482  15.502  -4.088  0.00  0.00     0.151 C 
ATOM      2  C8  ASG d 523      33.294  10.867  -2.670  0.00  0.00    -0.003 C 
ATOM      3  O4  ASG d 523      30.193  16.003  -3.455  0.00  0.00    -0.246 OA
ATOM      4  C6  ASG d 523      31.133  18.186  -5.152  0.00  0.00     0.043 C 
ATOM      5  O5  ASG d 523      32.724  16.731  -4.070  0.00  0.00    -0.349 OA
ATOM      6  O3  ASG d 523      30.352  13.472  -4.254  0.00  0.00    -0.348 OA
ATOM      7  O6  ASG d 523      32.142  19.135  -5.440  0.00  0.00    -0.398 OA
ATOM      8  S   ASG d 523      28.621  16.424  -3.248  0.00  0.00     0.252 S 
ATOM      9  C4  ASG d 523      30.700  15.767  -4.780  0.00  0.00     0.114 C 
ATOM     10  OSB ASG d 523      28.364  16.950  -1.809  0.00  0.00    -0.572 OA
ATOM     11  C7  ASG d 523      32.849  12.288  -2.528  0.00  0.00     0.214 C 
ATOM     12  O7  ASG d 523      32.293  12.586  -1.506  0.00  0.00    -0.274 OA
ATOM     13  OSC ASG d 523      27.826  15.269  -3.520  0.00  0.00    -0.572 OA
ATOM     14  C3  ASG d 523      31.351  14.390  -4.707  0.00  0.00     0.094 C 
ATOM     15  C2  ASG d 523      32.472  14.430  -3.671  0.00  0.00     0.087 C 
ATOM     16  OSA ASG d 523      28.395  17.462  -4.218  0.00  0.00    -0.572 OA
ATOM     17  O1  ASG d 523      34.369  15.637  -3.021  0.00  0.00    -0.369 OA
ATOM     18  N   ASG d 523      33.093  13.119  -3.550  0.00  0.00    -0.349 N 
ATOM     19  C5  ASG d 523      31.755  16.803  -5.124  0.00  0.00     0.090 C 
ATOM     20  H   ASG d 523      33.966  15.283  -5.017  0.00  0.00     0.132 H 
ATOM     21  H   ASG d 523      33.771  10.736  -3.620  0.00  0.00     0.040 H 
ATOM     22  H   ASG d 523      32.446  10.219  -2.605  0.00  0.00     0.040 H 
ATOM     23  H   ASG d 523      33.985  10.630  -1.889  0.00  0.00     0.040 H 
ATOM     24  H   ASG d 523      30.696  18.403  -4.200  0.00  0.00     0.078 H 
ATOM     25  H   ASG d 523      30.371  18.227  -5.902  0.00  0.00     0.078 H 
ATOM     26  H   ASG d 523      32.829  19.095  -4.756  0.00  0.00     0.209 HD
ATOM     27  H   ASG d 523      29.931  15.823  -5.522  0.00  0.00     0.093 H 
ATOM     28  H   ASG d 523      31.744  14.101  -5.660  0.00  0.00     0.091 H 
ATOM     29  H   ASG d 523      32.081  14.682  -2.708  0.00  0.00     0.084 H 
ATOM     30  H   ASG d 523      33.874  15.834  -2.211  0.00  0.00     0.212 HD
ATOM     31  H   ASG d 523      33.722  12.831  -4.251  0.00  0.00     0.163 HD
ATOM     32  H   ASG d 523      32.192  16.621  -6.084  0.00  0.00     0.090 H 
ATOM     33  C6  GCD d 525      28.272  13.504  -7.997  0.00  0.00     0.233 C 
ATOM     34  C5  GCD d 525      28.624  12.850  -6.727  0.00  0.00     0.147 C 
ATOM     35  O6B GCD d 525      29.156  14.002  -8.725  0.00  0.00    -0.642 OA
ATOM     36  O2  GCD d 525      29.444  10.058  -5.200  0.00  0.00    -0.388 OA
ATOM     37  C3  GCD d 525      27.911  11.819  -4.530  0.00  0.00     0.084 C 
ATOM     38  O3  GCD d 525      27.659  12.672  -3.415  0.00  0.00    -0.389 OA
ATOM     39  O6A GCD d 525      27.068  13.525  -8.311  0.00  0.00    -0.642 OA
ATOM     40  C2  GCD d 525      29.349  11.278  -4.465  0.00  0.00     0.111 C 
ATOM     41  O5  GCD d 525      30.013  12.537  -6.415  0.00  0.00    -0.311 OA
ATOM     42  C4  GCD d 525      27.661  12.527  -5.851  0.00  0.00    -0.034 C 
ATOM     43  C1  GCD d 525      30.354  12.274  -5.054  0.00  0.00     0.165 C 
ATOM     44  H   GCD d 525      28.814   9.414  -4.840  0.00  0.00     0.210 HD
ATOM     45  H   GCD d 525      27.226  10.999  -4.478  0.00  0.00     0.093 H 
ATOM     46  H   GCD d 525      28.268  13.426  -3.440  0.00  0.00     0.210 HD
ATOM     47  H   GCD d 525      29.583  11.116  -3.434  0.00  0.00     0.095 H 
ATOM     48  H   GCD d 525      26.688  12.775  -6.089  0.00  0.00     0.085 H 
ATOM     49  H   GCD d 525      31.345  11.870  -5.039  0.00  0.00     0.134 H 
ENDROOT
TORSDOF 12
ENDMDL
MODEL 8
REMARK VINA RESULT:      -7.4      2.637      5.628
REMARK  0 active torsions:
REMARK  status: ('A' for Active; 'I' for Inactive)
REMARK       I    between atoms: C1_1  and  O1_26 
REMARK       I    between atoms: C6_2  and  C5_3 
REMARK       I    between atoms: C8_4  and  C7_20 
REMARK       I    between atoms: O2_6  and  C2_15 
REMARK       I    between atoms: O4_7  and  C4_17 
REMARK       I    between atoms: O4_7  and  S_16 
REMARK       I    between atoms: C3_8  and  O3_9 
REMARK       I    between atoms: C6_10  and  C5_28 
REMARK       I    between atoms: C6_10  and  O6_14 
REMARK       I    between atoms: O3_13  and  C3_23 
REMARK       I    between atoms: O3_13  and  C1_30 
REMARK       I    between atoms: C7_20  and  N_27 
REMARK       I    between atoms: C2_24  and  N_27 
ROOT
ATOM      1  C1  ASG d 523      33.055  13.367  -2.449  0.00  0.00     0.151 C 
ATOM      2  C8  ASG d 523      32.457   8.565  -2.121  0.00  0.00    -0.003 C 
ATOM      3  O4  ASG d 523      30.069  13.803  -3.987  0.00  0.00    -0.246 OA
ATOM      4  C6  ASG d 523      31.656  16.222  -4.384  0.00  0.00     0.043 C 
ATOM      5  O5  ASG d 523      32.343  14.586  -2.749  0.00  0.00    -0.349 OA
ATOM      6  O3  ASG d 523      30.933  11.436  -4.839  0.00  0.00    -0.348 OA
ATOM      7  O6  ASG d 523      32.526  17.192  -3.832  0.00  0.00    -0.398 OA
ATOM      8  S   ASG d 523      28.685  14.206  -4.771  0.00  0.00     0.252 S 
ATOM      9  C4  ASG d 523      31.316  13.781  -4.705  0.00  0.00     0.114 C 
ATOM     10  OSB ASG d 523      27.534  14.490  -3.768  0.00  0.00    -0.572 OA
ATOM     11  C7  ASG d 523      31.889   9.949  -2.102  0.00  0.00     0.214 C 
ATOM     12  O7  ASG d 523      30.790  10.081  -1.637  0.00  0.00    -0.274 OA
ATOM     13  OSC ASG d 523      28.352  13.122  -5.639  0.00  0.00    -0.572 OA
ATOM     14  C3  ASG d 523      31.902  12.402  -4.424  0.00  0.00     0.094 C 
ATOM     15  C2  ASG d 523      32.114  12.255  -2.919  0.00  0.00     0.087 C 
ATOM     16  OSA ASG d 523      29.022  15.393  -5.510  0.00  0.00    -0.572 OA
ATOM     17  O1  ASG d 523      33.058  13.311  -1.056  0.00  0.00    -0.369 OA
ATOM     18  N   ASG d 523      32.641  10.934  -2.611  0.00  0.00    -0.349 N 
ATOM     19  C5  ASG d 523      32.249  14.845  -4.156  0.00  0.00     0.090 C 
ATOM     20  H   ASG d 523      34.033  13.297  -2.877  0.00  0.00     0.132 H 
ATOM     21  H   ASG d 523      33.434   8.585  -2.558  0.00  0.00     0.040 H 
ATOM     22  H   ASG d 523      31.821   7.926  -2.699  0.00  0.00     0.040 H 
ATOM     23  H   ASG d 523      32.522   8.193  -1.121  0.00  0.00     0.040 H 
ATOM     24  H   ASG d 523      30.700  16.285  -3.907  0.00  0.00     0.078 H 
ATOM     25  H   ASG d 523      31.535  16.397  -5.432  0.00  0.00     0.078 H 
ATOM     26  H   ASG d 523      32.632  17.029  -2.882  0.00  0.00     0.209 HD
ATOM     27  H   ASG d 523      31.182  13.970  -5.749  0.00  0.00     0.093 H 
ATOM     28  H   ASG d 523      32.831  12.269  -4.938  0.00  0.00     0.091 H 
ATOM     29  H   ASG d 523      31.183  12.350  -2.400  0.00  0.00     0.084 H 
ATOM     30  H   ASG d 523      32.148  13.379  -0.727  0.00  0.00     0.212 HD
ATOM     31  H   ASG d 523      33.594  10.756  -2.784  0.00  0.00     0.163 HD
ATOM     32  H   ASG d 523      33.207  14.818  -4.633  0.00  0.00     0.090 H 
ATOM     33  C6  GCD d 525      31.673  12.114  -9.002  0.00  0.00     0.233 C 
ATOM     34  C5  GCD d 525      31.209  11.255  -7.901  0.00  0.00     0.147 C 
ATOM     35  O6B GCD d 525      32.767  12.714  -8.926  0.00  0.00    -0.642 OA
ATOM     36  O2  GCD d 525      31.147   8.238  -6.600  0.00  0.00    -0.388 OA
ATOM     37  C3  GCD d 525      29.376   9.886  -6.823  0.00  0.00     0.084 C 
ATOM     38  O3  GCD d 525      28.401  10.546  -6.020  0.00  0.00    -0.389 OA
ATOM     39  O6A GCD d 525      30.938  12.203 -10.002  0.00  0.00    -0.642 OA
ATOM     40  C2  GCD d 525      30.497   9.321  -5.935  0.00  0.00     0.111 C 
ATOM     41  O5  GCD d 525      32.116  10.875  -6.825  0.00  0.00    -0.311 OA
ATOM     42  C4  GCD d 525      29.946  10.805  -7.890  0.00  0.00    -0.034 C 
ATOM     43  C1  GCD d 525      31.550  10.387  -5.609  0.00  0.00     0.165 C 
ATOM     44  H   GCD d 525      30.495   7.552  -6.814  0.00  0.00     0.210 HD
ATOM     45  H   GCD d 525      28.892   9.077  -7.330  0.00  0.00     0.093 H 
ATOM     46  H   GCD d 525      28.817  11.285  -5.549  0.00  0.00     0.210 HD
ATOM     47  H   GCD d 525      30.046   8.988  -5.024  0.00  0.00     0.095 H 
ATOM     48  H   GCD d 525      29.321  11.103  -8.655  0.00  0.00     0.085 H 
ATOM     49  H   GCD d 525      32.344   9.972  -5.023  0.00  0.00     0.134 H 
ENDROOT
TORSDOF 12
ENDMDL
MODEL 9
REMARK VINA RESULT:      -7.3      2.572      5.270
REMARK  0 active torsions:
REMARK  status: ('A' for Active; 'I' for Inactive)
REMARK       I    between atoms: C1_1  and  O1_26 
REMARK       I    between atoms: C6_2  and  C5_3 
REMARK       I    between atoms: C8_4  and  C7_20 
REMARK       I    between atoms: O2_6  and  C2_15 
REMARK       I    between atoms: O4_7  and  C4_17 
REMARK       I    between atoms: O4_7  and  S_16 
REMARK       I    between atoms: C3_8  and  O3_9 
REMARK       I    between atoms: C6_10  and  C5_28 
REMARK       I    between atoms: C6_10  and  O6_14 
REMARK       I    between atoms: O3_13  and  C3_23 
REMARK       I    between atoms: O3_13  and  C1_30 
REMARK       I    between atoms: C7_20  and  N_27 
REMARK       I    between atoms: C2_24  and  N_27 
ROOT
ATOM      1  C1  ASG d 523      34.327  13.246  -2.322  0.00  0.00     0.151 C 
ATOM      2  C8  ASG d 523      32.290   8.857  -1.988  0.00  0.00    -0.003 C 
ATOM      3  O4  ASG d 523      31.516  14.638  -3.601  0.00  0.00    -0.246 OA
ATOM      4  C6  ASG d 523      33.741  16.460  -4.107  0.00  0.00     0.043 C 
ATOM      5  O5  ASG d 523      34.009  14.636  -2.551  0.00  0.00    -0.349 OA
ATOM      6  O3  ASG d 523      31.532  12.151  -4.543  0.00  0.00    -0.348 OA
ATOM      7  O6  ASG d 523      34.911  17.092  -3.623  0.00  0.00    -0.398 OA
ATOM      8  S   ASG d 523      30.270  15.476  -4.262  0.00  0.00     0.252 S 
ATOM      9  C4  ASG d 523      32.635  14.256  -4.421  0.00  0.00     0.114 C 
ATOM     10  OSB ASG d 523      29.346  16.068  -3.163  0.00  0.00    -0.572 OA
ATOM     11  C7  ASG d 523      32.185  10.347  -1.910  0.00  0.00     0.214 C 
ATOM     12  O7  ASG d 523      31.221  10.797  -1.352  0.00  0.00    -0.274 OA
ATOM     13  OSC ASG d 523      29.550  14.580  -5.109  0.00  0.00    -0.572 OA
ATOM     14  C3  ASG d 523      32.782  12.755  -4.202  0.00  0.00     0.094 C 
ATOM     15  C2  ASG d 523      33.053  12.498  -2.721  0.00  0.00     0.087 C 
ATOM     16  OSA ASG d 523      30.902  16.525  -5.017  0.00  0.00    -0.572 OA
ATOM     17  O1  ASG d 523      34.419  13.144  -0.935  0.00  0.00    -0.369 OA
ATOM     18  N   ASG d 523      33.165  11.068  -2.471  0.00  0.00    -0.349 N 
ATOM     19  C5  ASG d 523      33.892  14.959  -3.942  0.00  0.00     0.090 C 
ATOM     20  H   ASG d 523      35.199  12.892  -2.832  0.00  0.00     0.132 H 
ATOM     21  H   ASG d 523      33.188   8.589  -2.505  0.00  0.00     0.040 H 
ATOM     22  H   ASG d 523      31.445   8.467  -2.516  0.00  0.00     0.040 H 
ATOM     23  H   ASG d 523      32.313   8.449  -1.000  0.00  0.00     0.040 H 
ATOM     24  H   ASG d 523      32.892  16.799  -3.552  0.00  0.00     0.078 H 
ATOM     25  H   ASG d 523      33.601  16.699  -5.141  0.00  0.00     0.078 H 
ATOM     26  H   ASG d 523      35.033  16.872  -2.686  0.00  0.00     0.209 HD
ATOM     27  H   ASG d 523      32.487  14.513  -5.449  0.00  0.00     0.093 H 
ATOM     28  H   ASG d 523      33.581  12.358  -4.794  0.00  0.00     0.091 H 
ATOM     29  H   ASG d 523      32.241  12.858  -2.126  0.00  0.00     0.084 H 
ATOM     30  H   ASG d 523      33.604  13.479  -0.531  0.00  0.00     0.212 HD
ATOM     31  H   ASG d 523      33.998  10.610  -2.725  0.00  0.00     0.163 HD
ATOM     32  H   ASG d 523      34.754  14.653  -4.498  0.00  0.00     0.090 H 
ATOM     33  C6  GCD d 525      32.123  12.710  -8.747  0.00  0.00     0.233 C 
ATOM     34  C5  GCD d 525      31.501  11.999  -7.619  0.00  0.00     0.147 C 
ATOM     35  O6B GCD d 525      33.352  12.938  -8.758  0.00  0.00    -0.642 OA
ATOM     36  O2  GCD d 525      30.603   9.107  -6.344  0.00  0.00    -0.388 OA
ATOM     37  C3  GCD d 525      29.421  11.228  -6.404  0.00  0.00     0.084 C 
ATOM     38  O3  GCD d 525      28.765  12.130  -5.515  0.00  0.00    -0.389 OA
ATOM     39  O6A GCD d 525      31.378  13.057  -9.681  0.00  0.00    -0.642 OA
ATOM     40  C2  GCD d 525      30.376  10.314  -5.617  0.00  0.00     0.111 C 
ATOM     41  O5  GCD d 525      32.325  11.320  -6.626  0.00  0.00    -0.311 OA
ATOM     42  C4  GCD d 525      30.165  11.962  -7.506  0.00  0.00    -0.034 C 
ATOM     43  C1  GCD d 525      31.730  10.990  -5.371  0.00  0.00     0.165 C 
ATOM     44  H   GCD d 525      29.756   8.664  -6.509  0.00  0.00     0.210 HD
ATOM     45  H   GCD d 525      28.672  10.628  -6.875  0.00  0.00     0.093 H 
ATOM     46  H   GCD d 525      29.425  12.687  -5.074  0.00  0.00     0.210 HD
ATOM     47  H   GCD d 525      29.915  10.106  -4.674  0.00  0.00     0.095 H 
ATOM     48  H   GCD d 525      29.607  12.465  -8.213  0.00  0.00     0.085 H 
ATOM     49  H   GCD d 525      32.398  10.330  -4.858  0.00  0.00     0.134 H 
ENDROOT
TORSDOF 12
ENDMDL
MODEL 10
REMARK VINA RESULT:      -7.3      2.231      5.941
REMARK  0 active torsions:
REMARK  status: ('A' for Active; 'I' for Inactive)
REMARK       I    between atoms: C1_1  and  O1_26 
REMARK       I    between atoms: C6_2  and  C5_3 
REMARK       I    between atoms: C8_4  and  C7_20 
REMARK       I    between atoms: O2_6  and  C2_15 
REMARK       I    between atoms: O4_7  and  C4_17 
REMARK       I    between atoms: O4_7  and  S_16 
REMARK       I    between atoms: C3_8  and  O3_9 
REMARK       I    between atoms: C6_10  and  C5_28 
REMARK       I    between atoms: C6_10  and  O6_14 
REMARK       I    between atoms: O3_13  and  C3_23 
REMARK       I    between atoms: O3_13  and  C1_30 
REMARK       I    between atoms: C7_20  and  N_27 
REMARK       I    between atoms: C2_24  and  N_27 
ROOT
ATOM      1  C1  ASG d 523      33.616  14.935  -7.295  0.00  0.00     0.151 C 
ATOM      2  C8  ASG d 523      33.377  10.566  -9.388  0.00  0.00    -0.003 C 
ATOM      3  O4  ASG d 523      33.329  13.643  -4.177  0.00  0.00    -0.246 OA
ATOM      4  C6  ASG d 523      32.779  16.507  -4.026  0.00  0.00     0.043 C 
ATOM      5  O5  ASG d 523      33.784  15.577  -6.012  0.00  0.00    -0.349 OA
ATOM      6  O3  ASG d 523      31.866  12.040  -5.713  0.00  0.00    -0.348 OA
ATOM      7  O6  ASG d 523      33.129  17.820  -4.420  0.00  0.00    -0.398 OA
ATOM      8  S   ASG d 523      33.163  13.210  -2.603  0.00  0.00     0.252 S 
ATOM      9  C4  ASG d 523      32.221  14.238  -4.874  0.00  0.00     0.114 C 
ATOM     10  OSB ASG d 523      34.542  12.904  -1.956  0.00  0.00    -0.572 OA
ATOM     11  C7  ASG d 523      33.813  11.443  -8.256  0.00  0.00     0.214 C 
ATOM     12  O7  ASG d 523      34.654  11.004  -7.520  0.00  0.00    -0.274 OA
ATOM     13  OSC ASG d 523      32.312  12.064  -2.560  0.00  0.00    -0.572 OA
ATOM     14  C3  ASG d 523      32.055  13.394  -6.133  0.00  0.00     0.094 C 
ATOM     15  C2  ASG d 523      33.343  13.469  -6.949  0.00  0.00     0.087 C 
ATOM     16  OSA ASG d 523      32.548  14.351  -1.979  0.00  0.00    -0.572 OA
ATOM     17  O1  ASG d 523      34.889  14.971  -7.860  0.00  0.00    -0.369 OA
ATOM     18  N   ASG d 523      33.232  12.644  -8.144  0.00  0.00    -0.349 N 
ATOM     19  C5  ASG d 523      32.562  15.664  -5.268  0.00  0.00     0.090 C 
ATOM     20  H   ASG d 523      32.862  15.366  -7.920  0.00  0.00     0.132 H 
ATOM     21  H   ASG d 523      32.630  11.072  -9.964  0.00  0.00     0.040 H 
ATOM     22  H   ASG d 523      32.971   9.656  -8.998  0.00  0.00     0.040 H 
ATOM     23  H   ASG d 523      34.217  10.343 -10.011  0.00  0.00     0.040 H 
ATOM     24  H   ASG d 523      33.569  16.085  -3.439  0.00  0.00     0.078 H 
ATOM     25  H   ASG d 523      31.884  16.529  -3.441  0.00  0.00     0.078 H 
ATOM     26  H   ASG d 523      33.942  17.793  -4.949  0.00  0.00     0.209 HD
ATOM     27  H   ASG d 523      31.336  14.266  -4.275  0.00  0.00     0.093 H 
ATOM     28  H   ASG d 523      31.230  13.740  -6.720  0.00  0.00     0.091 H 
ATOM     29  H   ASG d 523      34.167  13.090  -6.382  0.00  0.00     0.084 H 
ATOM     30  H   ASG d 523      35.526  14.569  -7.250  0.00  0.00     0.212 HD
ATOM     31  H   ASG d 523      32.705  12.984  -8.902  0.00  0.00     0.163 HD
ATOM     32  H   ASG d 523      31.777  16.117  -5.838  0.00  0.00     0.090 H 
ATOM     33  C6  GCD d 525      27.874  12.760  -4.342  0.00  0.00     0.233 C 
ATOM     34  C5  GCD d 525      28.918  11.851  -4.841  0.00  0.00     0.147 C 
ATOM     35  O6B GCD d 525      27.648  13.848  -4.912  0.00  0.00    -0.642 OA
ATOM     36  O2  GCD d 525      29.666   9.336  -6.819  0.00  0.00    -0.388 OA
ATOM     37  C3  GCD d 525      30.349   9.788  -4.532  0.00  0.00     0.084 C 
ATOM     38  O3  GCD d 525      31.540   9.882  -3.755  0.00  0.00    -0.389 OA
ATOM     39  O6A GCD d 525      27.228  12.389  -3.344  0.00  0.00    -0.642 OA
ATOM     40  C2  GCD d 525      30.680   9.952  -6.026  0.00  0.00     0.111 C 
ATOM     41  O5  GCD d 525      29.527  12.070  -6.148  0.00  0.00    -0.311 OA
ATOM     42  C4  GCD d 525      29.307  10.805  -4.097  0.00  0.00    -0.034 C 
ATOM     43  C1  GCD d 525      30.773  11.429  -6.425  0.00  0.00     0.165 C 
ATOM     44  H   GCD d 525      29.593   8.399  -6.581  0.00  0.00     0.210 HD
ATOM     45  H   GCD d 525      29.927   8.818  -4.372  0.00  0.00     0.093 H 
ATOM     46  H   GCD d 525      31.941  10.756  -3.882  0.00  0.00     0.210 HD
ATOM     47  H   GCD d 525      31.627   9.485  -6.196  0.00  0.00     0.095 H 
ATOM     48  H   GCD d 525      28.872  10.684  -3.170  0.00  0.00     0.085 H 
ATOM     49  H   GCD d 525      30.964  11.530  -7.473  0.00  0.00     0.134 H 
ENDROOT
TORSDOF 12
ENDMDL
MODEL 11
REMARK VINA RESULT:      -7.3      2.819      6.490
REMARK  0 active torsions:
REMARK  status: ('A' for Active; 'I' for Inactive)
REMARK       I    between atoms: C1_1  and  O1_26 
REMARK       I    between atoms: C6_2  and  C5_3 
REMARK       I    between atoms: C8_4  and  C7_20 
REMARK       I    between atoms: O2_6  and  C2_15 
REMARK       I    between atoms: O4_7  and  C4_17 
REMARK       I    between atoms: O4_7  and  S_16 
REMARK       I    between atoms: C3_8  and  O3_9 
REMARK       I    between atoms: C6_10  and  C5_28 
REMARK       I    between atoms: C6_10  and  O6_14 
REMARK       I    between atoms: O3_13  and  C3_23 
REMARK       I    between atoms: O3_13  and  C1_30 
REMARK       I    between atoms: C7_20  and  N_27 
REMARK       I    between atoms: C2_24  and  N_27 
ROOT
ATOM      1  C1  ASG d 523      33.911  17.161  -4.528  0.00  0.00     0.151 C 
ATOM      2  C8  ASG d 523      35.001  12.612  -3.246  0.00  0.00    -0.003 C 
ATOM      3  O4  ASG d 523      30.611  16.724  -3.907  0.00  0.00    -0.246 OA
ATOM      4  C6  ASG d 523      30.916  19.130  -5.532  0.00  0.00     0.043 C 
ATOM      5  O5  ASG d 523      32.846  18.134  -4.480  0.00  0.00    -0.349 OA
ATOM      6  O3  ASG d 523      31.457  14.358  -4.777  0.00  0.00    -0.348 OA
ATOM      7  O6  ASG d 523      31.627  20.328  -5.785  0.00  0.00    -0.398 OA
ATOM      8  S   ASG d 523      28.983  16.692  -3.700  0.00  0.00     0.252 S 
ATOM      9  C4  ASG d 523      31.163  16.675  -5.234  0.00  0.00     0.114 C 
ATOM     10  OSB ASG d 523      28.593  17.083  -2.249  0.00  0.00    -0.572 OA
ATOM     11  C7  ASG d 523      34.183  13.852  -3.066  0.00  0.00     0.214 C 
ATOM     12  O7  ASG d 523      33.568  13.955  -2.040  0.00  0.00    -0.274 OA
ATOM     13  OSC ASG d 523      28.536  15.372  -4.012  0.00  0.00    -0.572 OA
ATOM     14  C3  ASG d 523      32.166  15.527  -5.195  0.00  0.00     0.094 C 
ATOM     15  C2  ASG d 523      33.233  15.842  -4.149  0.00  0.00     0.087 C 
ATOM     16  OSA ASG d 523      28.482  17.657  -4.642  0.00  0.00    -0.572 OA
ATOM     17  O1  ASG d 523      34.728  17.502  -3.450  0.00  0.00    -0.369 OA
ATOM     18  N   ASG d 523      34.190  14.748  -4.061  0.00  0.00    -0.349 N 
ATOM     19  C5  ASG d 523      31.894  17.970  -5.539  0.00  0.00     0.090 C 
ATOM     20  H   ASG d 523      34.437  17.111  -5.458  0.00  0.00     0.132 H 
ATOM     21  H   ASG d 523      35.495  12.644  -4.194  0.00  0.00     0.040 H 
ATOM     22  H   ASG d 523      34.362  11.754  -3.206  0.00  0.00     0.040 H 
ATOM     23  H   ASG d 523      35.730  12.550  -2.466  0.00  0.00     0.040 H 
ATOM     24  H   ASG d 523      30.437  19.191  -4.577  0.00  0.00     0.078 H 
ATOM     25  H   ASG d 523      30.173  18.983  -6.287  0.00  0.00     0.078 H 
ATOM     26  H   ASG d 523      32.299  20.456  -5.097  0.00  0.00     0.209 HD
ATOM     27  H   ASG d 523      30.408  16.541  -5.980  0.00  0.00     0.093 H 
ATOM     28  H   ASG d 523      32.623  15.386  -6.153  0.00  0.00     0.091 H 
ATOM     29  H   ASG d 523      32.788  15.948  -3.183  0.00  0.00     0.084 H 
ATOM     30  H   ASG d 523      34.197  17.531  -2.639  0.00  0.00     0.212 HD
ATOM     31  H   ASG d 523      34.873  14.664  -4.765  0.00  0.00     0.163 HD
ATOM     32  H   ASG d 523      32.364  17.943  -6.501  0.00  0.00     0.090 H 
ATOM     33  C6  GCD d 525      29.446  13.931  -8.534  0.00  0.00     0.233 C 
ATOM     34  C5  GCD d 525      29.965  13.361  -7.280  0.00  0.00     0.147 C 
ATOM     35  O6B GCD d 525      30.161  14.674  -9.241  0.00  0.00    -0.642 OA
ATOM     36  O2  GCD d 525      31.518  10.856  -5.828  0.00  0.00    -0.388 OA
ATOM     37  C3  GCD d 525      29.562  12.109  -5.120  0.00  0.00     0.084 C 
ATOM     38  O3  GCD d 525      29.086  12.826  -3.983  0.00  0.00    -0.389 OA
ATOM     39  O6A GCD d 525      28.283  13.630  -8.857  0.00  0.00    -0.642 OA
ATOM     40  C2  GCD d 525      31.094  11.980  -5.059  0.00  0.00     0.111 C 
ATOM     41  O5  GCD d 525      31.387  13.431  -6.967  0.00  0.00    -0.311 OA
ATOM     42  C4  GCD d 525      29.127  12.760  -6.422  0.00  0.00    -0.034 C 
ATOM     43  C1  GCD d 525      31.787  13.231  -5.611  0.00  0.00     0.165 C 
ATOM     44  H   GCD d 525      31.089  10.053  -5.492  0.00  0.00     0.210 HD
ATOM     45  H   GCD d 525      29.128  11.131  -5.097  0.00  0.00     0.093 H 
ATOM     46  H   GCD d 525      29.466  13.719  -3.982  0.00  0.00     0.210 HD
ATOM     47  H   GCD d 525      31.363  11.858  -4.031  0.00  0.00     0.095 H 
ATOM     48  H   GCD d 525      28.124  12.740  -6.660  0.00  0.00     0.085 H 
ATOM     49  H   GCD d 525      32.851  13.114  -5.600  0.00  0.00     0.134 H 
ENDROOT
TORSDOF 12
ENDMDL
MODEL 12
REMARK VINA RESULT:      -7.2      2.722      5.856
REMARK  0 active torsions:
REMARK  status: ('A' for Active; 'I' for Inactive)
REMARK       I    between atoms: C1_1  and  O1_26 
REMARK       I    between atoms: C6_2  and  C5_3 
REMARK       I    between atoms: C8_4  and  C7_20 
REMARK       I    between atoms: O2_6  and  C2_15 
REMARK       I    between atoms: O4_7  and  C4_17 
REMARK       I    between atoms: O4_7  and  S_16 
REMARK       I    between atoms: C3_8  and  O3_9 
REMARK       I    between atoms: C6_10  and  C5_28 
REMARK       I    between atoms: C6_10  and  O6_14 
REMARK       I    between atoms: O3_13  and  C3_23 
REMARK       I    between atoms: O3_13  and  C1_30 
REMARK       I    between atoms: C7_20  and  N_27 
REMARK       I    between atoms: C2_24  and  N_27 
ROOT
ATOM      1  C1  ASG d 523      33.186  13.929  -7.427  0.00  0.00     0.151 C 
ATOM      2  C8  ASG d 523      31.035  15.683  -3.449  0.00  0.00    -0.003 C 
ATOM      3  O4  ASG d 523      31.828  10.855  -7.009  0.00  0.00    -0.246 OA
ATOM      4  C6  ASG d 523      34.039  10.620  -8.902  0.00  0.00     0.043 C 
ATOM      5  O5  ASG d 523      33.176  12.797  -8.323  0.00  0.00    -0.349 OA
ATOM      6  O3  ASG d 523      32.220  11.764  -4.541  0.00  0.00    -0.348 OA
ATOM      7  O6  ASG d 523      34.724  11.149 -10.022  0.00  0.00    -0.398 OA
ATOM      8  S   ASG d 523      31.300   9.302  -6.953  0.00  0.00     0.252 S 
ATOM      9  C4  ASG d 523      33.182  11.162  -6.633  0.00  0.00     0.114 C 
ATOM     10  OSB ASG d 523      29.948   9.142  -7.700  0.00  0.00    -0.572 OA
ATOM     11  C7  ASG d 523      31.017  14.790  -4.649  0.00  0.00     0.214 C 
ATOM     12  O7  ASG d 523      29.949  14.362  -4.994  0.00  0.00    -0.274 OA
ATOM     13  OSC ASG d 523      31.170   8.942  -5.577  0.00  0.00    -0.572 OA
ATOM     14  C3  ASG d 523      33.055  12.265  -5.589  0.00  0.00     0.094 C 
ATOM     15  C2  ASG d 523      32.358  13.466  -6.226  0.00  0.00     0.087 C 
ATOM     16  OSA ASG d 523      32.336   8.545  -7.604  0.00  0.00    -0.572 OA
ATOM     17  O1  ASG d 523      32.416  14.887  -8.084  0.00  0.00    -0.369 OA
ATOM     18  N   ASG d 523      32.188  14.529  -5.244  0.00  0.00    -0.349 N 
ATOM     19  C5  ASG d 523      33.946  11.692  -7.833  0.00  0.00     0.090 C 
ATOM     20  H   ASG d 523      34.159  14.281  -7.154  0.00  0.00     0.132 H 
ATOM     21  H   ASG d 523      32.040  15.994  -3.250  0.00  0.00     0.040 H 
ATOM     22  H   ASG d 523      30.653  15.152  -2.603  0.00  0.00     0.040 H 
ATOM     23  H   ASG d 523      30.427  16.543  -3.635  0.00  0.00     0.040 H 
ATOM     24  H   ASG d 523      33.055  10.316  -9.193  0.00  0.00     0.078 H 
ATOM     25  H   ASG d 523      34.567   9.771  -8.521  0.00  0.00     0.078 H 
ATOM     26  H   ASG d 523      34.240  11.917 -10.363  0.00  0.00     0.209 HD
ATOM     27  H   ASG d 523      33.703  10.303  -6.266  0.00  0.00     0.093 H 
ATOM     28  H   ASG d 523      34.016  12.555  -5.218  0.00  0.00     0.091 H 
ATOM     29  H   ASG d 523      31.381  13.194  -6.565  0.00  0.00     0.084 H 
ATOM     30  H   ASG d 523      31.550  14.511  -8.304  0.00  0.00     0.212 HD
ATOM     31  H   ASG d 523      32.969  15.079  -5.008  0.00  0.00     0.163 HD
ATOM     32  H   ASG d 523      34.943  11.982  -7.572  0.00  0.00     0.090 H 
ATOM     33  C6  GCD d 525      35.265   9.165  -3.021  0.00  0.00     0.233 C 
ATOM     34  C5  GCD d 525      34.037   9.955  -2.835  0.00  0.00     0.147 C 
ATOM     35  O6B GCD d 525      36.265   9.663  -3.582  0.00  0.00    -0.642 OA
ATOM     36  O2  GCD d 525      32.338  11.988  -0.893  0.00  0.00    -0.388 OA
ATOM     37  C3  GCD d 525      31.594  10.075  -2.192  0.00  0.00     0.084 C 
ATOM     38  O3  GCD d 525      30.606   9.741  -3.163  0.00  0.00    -0.389 OA
ATOM     39  O6A GCD d 525      35.262   7.999  -2.588  0.00  0.00    -0.642 OA
ATOM     40  C2  GCD d 525      31.810  11.598  -2.160  0.00  0.00     0.111 C 
ATOM     41  O5  GCD d 525      34.043  11.396  -3.057  0.00  0.00    -0.311 OA
ATOM     42  C4  GCD d 525      32.905   9.350  -2.447  0.00  0.00    -0.034 C 
ATOM     43  C1  GCD d 525      32.789  12.051  -3.250  0.00  0.00     0.165 C 
ATOM     44  H   GCD d 525      31.730  11.709  -0.190  0.00  0.00     0.210 HD
ATOM     45  H   GCD d 525      31.238   9.753  -1.236  0.00  0.00     0.093 H 
ATOM     46  H   GCD d 525      30.907  10.023  -4.041  0.00  0.00     0.210 HD
ATOM     47  H   GCD d 525      30.860  12.058  -2.333  0.00  0.00     0.095 H 
ATOM     48  H   GCD d 525      32.926   8.328  -2.313  0.00  0.00     0.085 H 
ATOM     49  H   GCD d 525      32.961  13.106  -3.192  0.00  0.00     0.134 H 
ENDROOT
TORSDOF 12
ENDMDL
MODEL 13
REMARK VINA RESULT:      -7.1      2.582      6.133
REMARK  0 active torsions:
REMARK  status: ('A' for Active; 'I' for Inactive)
REMARK       I    between atoms: C1_1  and  O1_26 
REMARK       I    between atoms: C6_2  and  C5_3 
REMARK       I    between atoms: C8_4  and  C7_20 
REMARK       I    between atoms: O2_6  and  C2_15 
REMARK       I    between atoms: O4_7  and  C4_17 
REMARK       I    between atoms: O4_7  and  S_16 
REMARK       I    between atoms: C3_8  and  O3_9 
REMARK       I    between atoms: C6_10  and  C5_28 
REMARK       I    between atoms: C6_10  and  O6_14 
REMARK       I    between atoms: O3_13  and  C3_23 
REMARK       I    between atoms: O3_13  and  C1_30 
REMARK       I    between atoms: C7_20  and  N_27 
REMARK       I    between atoms: C2_24  and  N_27 
ROOT
ATOM      1  C1  ASG d 523      31.392  14.937  -3.793  0.00  0.00     0.151 C 
ATOM      2  C8  ASG d 523      34.999  13.486  -0.891  0.00  0.00    -0.003 C 
ATOM      3  O4  ASG d 523      30.172  11.795  -4.125  0.00  0.00    -0.246 OA
ATOM      4  C6  ASG d 523      29.014  13.446  -6.237  0.00  0.00     0.043 C 
ATOM      5  O5  ASG d 523      30.154  14.487  -4.383  0.00  0.00    -0.349 OA
ATOM      6  O3  ASG d 523      32.804  11.482  -3.911  0.00  0.00    -0.348 OA
ATOM      7  O6  ASG d 523      28.427  14.677  -6.614  0.00  0.00    -0.398 OA
ATOM      8  S   ASG d 523      29.462  10.349  -4.436  0.00  0.00     0.252 S 
ATOM      9  C4  ASG d 523      30.989  12.420  -5.131  0.00  0.00     0.114 C 
ATOM     10  OSB ASG d 523      28.378  10.015  -3.375  0.00  0.00    -0.572 OA
ATOM     11  C7  ASG d 523      33.586  13.364  -1.369  0.00  0.00     0.214 C 
ATOM     12  O7  ASG d 523      32.826  12.750  -0.670  0.00  0.00    -0.274 OA
ATOM     13  OSC ASG d 523      30.491   9.358  -4.446  0.00  0.00    -0.572 OA
ATOM     14  C3  ASG d 523      32.308  12.719  -4.429  0.00  0.00     0.094 C 
ATOM     15  C2  ASG d 523      32.039  13.658  -3.255  0.00  0.00     0.087 C 
ATOM     16  OSA ASG d 523      28.870  10.510  -5.737  0.00  0.00    -0.572 OA
ATOM     17  O1  ASG d 523      30.988  15.668  -2.676  0.00  0.00    -0.369 OA
ATOM     18  N   ASG d 523      33.276  13.937  -2.539  0.00  0.00    -0.349 N 
ATOM     19  C5  ASG d 523      30.353  13.723  -5.580  0.00  0.00     0.090 C 
ATOM     20  H   ASG d 523      32.033  15.487  -4.450  0.00  0.00     0.132 H 
ATOM     21  H   ASG d 523      35.568  14.052  -1.600  0.00  0.00     0.040 H 
ATOM     22  H   ASG d 523      35.427  12.511  -0.788  0.00  0.00     0.040 H 
ATOM     23  H   ASG d 523      35.013  13.984   0.055  0.00  0.00     0.040 H 
ATOM     24  H   ASG d 523      28.372  12.939  -5.547  0.00  0.00     0.078 H 
ATOM     25  H   ASG d 523      29.154  12.831  -7.101  0.00  0.00     0.078 H 
ATOM     26  H   ASG d 523      28.302  15.231  -5.828  0.00  0.00     0.209 HD
ATOM     27  H   ASG d 523      31.110  11.800  -5.994  0.00  0.00     0.093 H 
ATOM     28  H   ASG d 523      33.008  13.168  -5.103  0.00  0.00     0.091 H 
ATOM     29  H   ASG d 523      31.369  13.201  -2.557  0.00  0.00     0.084 H 
ATOM     30  H   ASG d 523      30.412  15.119  -2.121  0.00  0.00     0.212 HD
ATOM     31  H   ASG d 523      33.912  14.577  -2.932  0.00  0.00     0.163 HD
ATOM     32  H   ASG d 523      30.965  14.241  -6.289  0.00  0.00     0.090 H 
ATOM     33  C6  GCD d 525      33.926  10.026  -7.779  0.00  0.00     0.233 C 
ATOM     34  C5  GCD d 525      34.072  10.032  -6.314  0.00  0.00     0.147 C 
ATOM     35  O6B GCD d 525      33.902  11.098  -8.422  0.00  0.00    -0.642 OA
ATOM     36  O2  GCD d 525      36.125   9.959  -3.750  0.00  0.00    -0.388 OA
ATOM     37  C3  GCD d 525      34.025   8.792  -4.110  0.00  0.00     0.084 C 
ATOM     38  O3  GCD d 525      32.774   8.585  -3.460  0.00  0.00    -0.389 OA
ATOM     39  O6A GCD d 525      33.842   8.918  -8.337  0.00  0.00    -0.642 OA
ATOM     40  C2  GCD d 525      34.716  10.043  -3.540  0.00  0.00     0.111 C 
ATOM     41  O5  GCD d 525      34.451  11.252  -5.612  0.00  0.00    -0.311 OA
ATOM     42  C4  GCD d 525      33.867   8.905  -5.617  0.00  0.00    -0.034 C 
ATOM     43  C1  GCD d 525      34.204  11.324  -4.208  0.00  0.00     0.165 C 
ATOM     44  H   GCD d 525      36.467   9.153  -3.333  0.00  0.00     0.210 HD
ATOM     45  H   GCD d 525      34.640   7.937  -3.921  0.00  0.00     0.093 H 
ATOM     46  H   GCD d 525      32.197   9.348  -3.617  0.00  0.00     0.210 HD
ATOM     47  H   GCD d 525      34.492  10.082  -2.494  0.00  0.00     0.095 H 
ATOM     48  H   GCD d 525      33.584   8.060  -6.137  0.00  0.00     0.085 H 
ATOM     49  H   GCD d 525      34.719  12.183  -3.830  0.00  0.00     0.134 H 
ENDROOT
TORSDOF 12
ENDMDL
MODEL 14
REMARK VINA RESULT:      -7.1      1.930      2.329
REMARK  0 active torsions:
REMARK  status: ('A' for Active; 'I' for Inactive)
REMARK       I    between atoms: C1_1  and  O1_26 
REMARK       I    between atoms: C6_2  and  C5_3 
REMARK       I    between atoms: C8_4  and  C7_20 
REMARK       I    between atoms: O2_6  and  C2_15 
REMARK       I    between atoms: O4_7  and  C4_17 
REMARK       I    between atoms: O4_7  and  S_16 
REMARK       I    between atoms: C3_8  and  O3_9 
REMARK       I    between atoms: C6_10  and  C5_28 
REMARK       I    between atoms: C6_10  and  O6_14 
REMARK       I    between atoms: O3_13  and  C3_23 
REMARK       I    between atoms: O3_13  and  C1_30 
REMARK       I    between atoms: C7_20  and  N_27 
REMARK       I    between atoms: C2_24  and  N_27 
ROOT
ATOM      1  C1  ASG d 523      29.831  11.991  -4.707  0.00  0.00     0.151 C 
ATOM      2  C8  ASG d 523      27.340  16.153  -4.760  0.00  0.00    -0.003 C 
ATOM      3  O4  ASG d 523      32.625  13.484  -3.509  0.00  0.00    -0.246 OA
ATOM      4  C6  ASG d 523      33.377  10.869  -4.570  0.00  0.00     0.043 C 
ATOM      5  O5  ASG d 523      31.051  11.400  -4.212  0.00  0.00    -0.349 OA
ATOM      6  O3  ASG d 523      31.484  15.321  -5.056  0.00  0.00    -0.348 OA
ATOM      7  O6  ASG d 523      33.082   9.491  -4.689  0.00  0.00    -0.398 OA
ATOM      8  S   ASG d 523      34.075  14.031  -2.971  0.00  0.00     0.252 S 
ATOM      9  C4  ASG d 523      32.457  13.155  -4.899  0.00  0.00     0.114 C 
ATOM     10  OSB ASG d 523      34.144  14.009  -1.419  0.00  0.00    -0.572 OA
ATOM     11  C7  ASG d 523      28.361  15.258  -4.131  0.00  0.00     0.214 C 
ATOM     12  O7  ASG d 523      28.682  15.506  -3.001  0.00  0.00    -0.274 OA
ATOM     13  OSC ASG d 523      34.247  15.357  -3.472  0.00  0.00    -0.572 OA
ATOM     14  C3  ASG d 523      31.228  13.943  -5.339  0.00  0.00     0.094 C 
ATOM     15  C2  ASG d 523      30.031  13.495  -4.503  0.00  0.00     0.087 C 
ATOM     16  OSA ASG d 523      35.036  13.122  -3.538  0.00  0.00    -0.572 OA
ATOM     17  O1  ASG d 523      28.865  11.598  -3.781  0.00  0.00    -0.369 OA
ATOM     18  N   ASG d 523      28.845  14.254  -4.874  0.00  0.00    -0.349 N 
ATOM     19  C5  ASG d 523      32.181  11.670  -5.051  0.00  0.00     0.090 C 
ATOM     20  H   ASG d 523      29.580  11.734  -5.715  0.00  0.00     0.132 H 
ATOM     21  H   ASG d 523      27.144  15.825  -5.759  0.00  0.00     0.040 H 
ATOM     22  H   ASG d 523      27.711  17.157  -4.780  0.00  0.00     0.040 H 
ATOM     23  H   ASG d 523      26.436  16.118  -4.189  0.00  0.00     0.040 H 
ATOM     24  H   ASG d 523      33.581  11.106  -3.546  0.00  0.00     0.078 H 
ATOM     25  H   ASG d 523      34.236  11.109  -5.161  0.00  0.00     0.078 H 
ATOM     26  H   ASG d 523      32.304   9.279  -4.151  0.00  0.00     0.209 HD
ATOM     27  H   ASG d 523      33.327  13.388  -5.476  0.00  0.00     0.093 H 
ATOM     28  H   ASG d 523      31.026  13.788  -6.378  0.00  0.00     0.091 H 
ATOM     29  H   ASG d 523      30.211  13.681  -3.465  0.00  0.00     0.084 H 
ATOM     30  H   ASG d 523      29.147  11.857  -2.890  0.00  0.00     0.212 HD
ATOM     31  H   ASG d 523      28.379  14.018  -5.708  0.00  0.00     0.163 HD
ATOM     32  H   ASG d 523      31.997  11.402  -6.071  0.00  0.00     0.090 H 
ATOM     33  C6  GCD d 525      34.262  15.725  -8.291  0.00  0.00     0.233 C 
ATOM     34  C5  GCD d 525      33.300  16.307  -7.340  0.00  0.00     0.147 C 
ATOM     35  O6B GCD d 525      33.973  14.701  -8.945  0.00  0.00    -0.642 OA
ATOM     36  O2  GCD d 525      30.840  18.433  -6.866  0.00  0.00    -0.388 OA
ATOM     37  C3  GCD d 525      32.781  17.948  -5.487  0.00  0.00     0.084 C 
ATOM     38  O3  GCD d 525      33.095  17.595  -4.142  0.00  0.00    -0.389 OA
ATOM     39  O6A GCD d 525      35.357  16.303  -8.416  0.00  0.00    -0.642 OA
ATOM     40  C2  GCD d 525      31.307  17.623  -5.788  0.00  0.00     0.111 C 
ATOM     41  O5  GCD d 525      31.910  15.868  -7.332  0.00  0.00    -0.311 OA
ATOM     42  C4  GCD d 525      33.698  17.257  -6.482  0.00  0.00    -0.034 C 
ATOM     43  C1  GCD d 525      31.122  16.151  -6.176  0.00  0.00     0.165 C 
ATOM     44  H   GCD d 525      30.949  19.370  -6.637  0.00  0.00     0.210 HD
ATOM     45  H   GCD d 525      32.935  19.001  -5.595  0.00  0.00     0.093 H 
ATOM     46  H   GCD d 525      32.963  16.641  -4.019  0.00  0.00     0.210 HD
ATOM     47  H   GCD d 525      30.749  17.820  -4.897  0.00  0.00     0.095 H 
ATOM     48  H   GCD d 525      34.691  17.538  -6.499  0.00  0.00     0.085 H 
ATOM     49  H   GCD d 525      30.100  15.947  -6.420  0.00  0.00     0.134 H 
ENDROOT
TORSDOF 12
ENDMDL
MODEL 15
REMARK VINA RESULT:      -7.0      2.406      5.712
REMARK  0 active torsions:
REMARK  status: ('A' for Active; 'I' for Inactive)
REMARK       I    between atoms: C1_1  and  O1_26 
REMARK       I    between atoms: C6_2  and  C5_3 
REMARK       I    between atoms: C8_4  and  C7_20 
REMARK       I    between atoms: O2_6  and  C2_15 
REMARK       I    between atoms: O4_7  and  C4_17 
REMARK       I    between atoms: O4_7  and  S_16 
REMARK       I    between atoms: C3_8  and  O3_9 
REMARK       I    between atoms: C6_10  and  C5_28 
REMARK       I    between atoms: C6_10  and  O6_14 
REMARK       I    between atoms: O3_13  and  C3_23 
REMARK       I    between atoms: O3_13  and  C1_30 
REMARK       I    between atoms: C7_20  and  N_27 
REMARK       I    between atoms: C2_24  and  N_27 
ROOT
ATOM      1  C1  ASG d 523      33.681  13.907  -4.135  0.00  0.00     0.151 C 
ATOM      2  C8  ASG d 523      32.480   9.650  -2.146  0.00  0.00    -0.003 C 
ATOM      3  O4  ASG d 523      30.578  15.186  -3.681  0.00  0.00    -0.246 OA
ATOM      4  C6  ASG d 523      31.980  16.871  -5.609  0.00  0.00     0.043 C 
ATOM      5  O5  ASG d 523      33.210  15.262  -4.299  0.00  0.00    -0.349 OA
ATOM      6  O3  ASG d 523      30.185  12.597  -4.145  0.00  0.00    -0.348 OA
ATOM      7  O6  ASG d 523      33.173  17.534  -5.982  0.00  0.00    -0.398 OA
ATOM      8  S   ASG d 523      29.135  15.959  -3.581  0.00  0.00     0.252 S 
ATOM      9  C4  ASG d 523      31.028  14.673  -4.947  0.00  0.00     0.114 C 
ATOM     10  OSB ASG d 523      28.993  16.712  -2.230  0.00  0.00    -0.572 OA
ATOM     11  C7  ASG d 523      32.355  11.139  -2.201  0.00  0.00     0.214 C 
ATOM     12  O7  ASG d 523      31.873  11.682  -1.243  0.00  0.00    -0.274 OA
ATOM     13  OSC ASG d 523      28.109  14.977  -3.730  0.00  0.00    -0.572 OA
ATOM     14  C3  ASG d 523      31.362  13.210  -4.678  0.00  0.00     0.094 C 
ATOM     15  C2  ASG d 523      32.460  13.143  -3.618  0.00  0.00     0.087 C 
ATOM     16  OSA ASG d 523      29.146  16.885  -4.683  0.00  0.00    -0.572 OA
ATOM     17  O1  ASG d 523      34.572  13.986  -3.065  0.00  0.00    -0.369 OA
ATOM     18  N   ASG d 523      32.779  11.756  -3.311  0.00  0.00    -0.349 N 
ATOM     19  C5  ASG d 523      32.285  15.402  -5.385  0.00  0.00     0.090 C 
ATOM     20  H   ASG d 523      34.111  13.468  -5.012  0.00  0.00     0.132 H 
ATOM     21  H   ASG d 523      32.921   9.295  -3.054  0.00  0.00     0.040 H 
ATOM     22  H   ASG d 523      31.510   9.214  -2.027  0.00  0.00     0.040 H 
ATOM     23  H   ASG d 523      33.098   9.374  -1.318  0.00  0.00     0.040 H 
ATOM     24  H   ASG d 523      31.597  17.301  -4.707  0.00  0.00     0.078 H 
ATOM     25  H   ASG d 523      31.249  16.976  -6.384  0.00  0.00     0.078 H 
ATOM     26  H   ASG d 523      33.831  17.436  -5.277  0.00  0.00     0.209 HD
ATOM     27  H   ASG d 523      30.293  14.796  -5.715  0.00  0.00     0.093 H 
ATOM     28  H   ASG d 523      31.686  12.721  -5.572  0.00  0.00     0.091 H 
ATOM     29  H   ASG d 523      32.129  13.598  -2.709  0.00  0.00     0.084 H 
ATOM     30  H   ASG d 523      34.127  14.391  -2.304  0.00  0.00     0.212 HD
ATOM     31  H   ASG d 523      33.333  11.250  -3.948  0.00  0.00     0.163 HD
ATOM     32  H   ASG d 523      32.676  15.005  -6.299  0.00  0.00     0.090 H 
ATOM     33  C6  GCD d 525      28.178  12.585  -7.929  0.00  0.00     0.233 C 
ATOM     34  C5  GCD d 525      28.373  12.043  -6.574  0.00  0.00     0.147 C 
ATOM     35  O6B GCD d 525      29.154  12.780  -8.684  0.00  0.00    -0.642 OA
ATOM     36  O2  GCD d 525      28.557   9.366  -4.678  0.00  0.00    -0.388 OA
ATOM     37  C3  GCD d 525      27.443  11.489  -4.289  0.00  0.00     0.084 C 
ATOM     38  O3  GCD d 525      27.378  12.514  -3.301  0.00  0.00    -0.389 OA
ATOM     39  O6A GCD d 525      27.009  12.823  -8.282  0.00  0.00    -0.642 OA
ATOM     40  C2  GCD d 525      28.728  10.663  -4.108  0.00  0.00     0.111 C 
ATOM     41  O5  GCD d 525      29.660  11.481  -6.179  0.00  0.00    -0.311 OA
ATOM     42  C4  GCD d 525      27.360  12.054  -5.696  0.00  0.00    -0.034 C 
ATOM     43  C1  GCD d 525      29.929  11.332  -4.785  0.00  0.00     0.165 C 
ATOM     44  H   GCD d 525      27.800   8.926  -4.260  0.00  0.00     0.210 HD
ATOM     45  H   GCD d 525      26.595  10.849  -4.155  0.00  0.00     0.093 H 
ATOM     46  H   GCD d 525      28.138  13.109  -3.401  0.00  0.00     0.210 HD
ATOM     47  H   GCD d 525      28.916  10.592  -3.057  0.00  0.00     0.095 H 
ATOM     48  H   GCD d 525      26.466  12.472  -5.997  0.00  0.00     0.085 H 
ATOM     49  H   GCD d 525      30.808  10.730  -4.686  0.00  0.00     0.134 H 
ENDROOT
TORSDOF 12
ENDMDL
MODEL 16
REMARK VINA RESULT:      -6.9      2.311      5.179
REMARK  0 active torsions:
REMARK  status: ('A' for Active; 'I' for Inactive)
REMARK       I    between atoms: C1_1  and  O1_26 
REMARK       I    between atoms: C6_2  and  C5_3 
REMARK       I    between atoms: C8_4  and  C7_20 
REMARK       I    between atoms: O2_6  and  C2_15 
REMARK       I    between atoms: O4_7  and  C4_17 
REMARK       I    between atoms: O4_7  and  S_16 
REMARK       I    between atoms: C3_8  and  O3_9 
REMARK       I    between atoms: C6_10  and  C5_28 
REMARK       I    between atoms: C6_10  and  O6_14 
REMARK       I    between atoms: O3_13  and  C3_23 
REMARK       I    between atoms: O3_13  and  C1_30 
REMARK       I    between atoms: C7_20  and  N_27 
REMARK       I    between atoms: C2_24  and  N_27 
ROOT
ATOM      1  C1  ASG d 523      33.573  12.419  -1.942  0.00  0.00     0.151 C 
ATOM      2  C8  ASG d 523      33.835  16.819  -3.967  0.00  0.00    -0.003 C 
ATOM      3  O4  ASG d 523      32.499  10.977  -4.813  0.00  0.00    -0.246 OA
ATOM      4  C6  ASG d 523      31.951   9.136  -2.614  0.00  0.00     0.043 C 
ATOM      5  O5  ASG d 523      33.417  11.021  -2.269  0.00  0.00    -0.349 OA
ATOM      6  O3  ASG d 523      31.458  13.424  -4.851  0.00  0.00    -0.348 OA
ATOM      7  O6  ASG d 523      32.399   8.523  -1.419  0.00  0.00    -0.398 OA
ATOM      8  S   ASG d 523      31.938  10.113  -6.090  0.00  0.00     0.252 S 
ATOM      9  C4  ASG d 523      31.607  11.325  -3.739  0.00  0.00     0.114 C 
ATOM     10  OSB ASG d 523      33.106   9.567  -6.955  0.00  0.00    -0.572 OA
ATOM     11  C7  ASG d 523      33.979  15.333  -4.065  0.00  0.00     0.214 C 
ATOM     12  O7  ASG d 523      34.603  14.906  -4.998  0.00  0.00    -0.274 OA
ATOM     13  OSC ASG d 523      31.094  10.975  -6.855  0.00  0.00    -0.572 OA
ATOM     14  C3  ASG d 523      31.757  12.834  -3.583  0.00  0.00     0.094 C 
ATOM     15  C2  ASG d 523      33.210  13.151  -3.237  0.00  0.00     0.087 C 
ATOM     16  OSA ASG d 523      31.194   9.034  -5.496  0.00  0.00    -0.572 OA
ATOM     17  O1  ASG d 523      34.948  12.576  -1.778  0.00  0.00    -0.369 OA
ATOM     18  N   ASG d 523      33.397  14.590  -3.114  0.00  0.00    -0.349 N 
ATOM     19  C5  ASG d 523      32.048  10.642  -2.457  0.00  0.00     0.090 C 
ATOM     20  H   ASG d 523      33.005  12.752  -1.099  0.00  0.00     0.132 H 
ATOM     21  H   ASG d 523      33.261  17.065  -3.098  0.00  0.00     0.040 H 
ATOM     22  H   ASG d 523      33.336  17.187  -4.839  0.00  0.00     0.040 H 
ATOM     23  H   ASG d 523      34.803  17.266  -3.894  0.00  0.00     0.040 H 
ATOM     24  H   ASG d 523      32.564   8.820  -3.432  0.00  0.00     0.078 H 
ATOM     25  H   ASG d 523      30.937   8.855  -2.807  0.00  0.00     0.078 H 
ATOM     26  H   ASG d 523      33.319   8.781  -1.249  0.00  0.00     0.209 HD
ATOM     27  H   ASG d 523      30.600  11.028  -3.940  0.00  0.00     0.093 H 
ATOM     28  H   ASG d 523      31.109  13.206  -2.817  0.00  0.00     0.091 H 
ATOM     29  H   ASG d 523      33.861  12.815  -4.016  0.00  0.00     0.084 H 
ATOM     30  H   ASG d 523      35.407  12.258  -2.571  0.00  0.00     0.212 HD
ATOM     31  H   ASG d 523      33.082  15.036  -2.296  0.00  0.00     0.163 HD
ATOM     32  H   ASG d 523      31.436  10.925  -1.626  0.00  0.00     0.090 H 
ATOM     33  C6  GCD d 525      27.254  12.696  -4.477  0.00  0.00     0.233 C 
ATOM     34  C5  GCD d 525      28.384  13.452  -5.042  0.00  0.00     0.147 C 
ATOM     35  O6B GCD d 525      27.189  12.467  -3.251  0.00  0.00    -0.642 OA
ATOM     36  O2  GCD d 525      29.586  16.393  -5.877  0.00  0.00    -0.388 OA
ATOM     37  C3  GCD d 525      29.674  14.271  -7.057  0.00  0.00     0.084 C 
ATOM     38  O3  GCD d 525      30.631  13.407  -7.664  0.00  0.00    -0.389 OA
ATOM     39  O6A GCD d 525      26.375  12.312  -5.270  0.00  0.00    -0.642 OA
ATOM     40  C2  GCD d 525      30.372  15.217  -6.064  0.00  0.00     0.111 C 
ATOM     41  O5  GCD d 525      29.305  14.170  -4.169  0.00  0.00    -0.311 OA
ATOM     42  C4  GCD d 525      28.565  13.493  -6.370  0.00  0.00    -0.034 C 
ATOM     43  C1  GCD d 525      30.574  14.551  -4.698  0.00  0.00     0.165 C 
ATOM     44  H   GCD d 525      29.448  16.829  -6.733  0.00  0.00     0.210 HD
ATOM     45  H   GCD d 525      29.218  14.853  -7.831  0.00  0.00     0.093 H 
ATOM     46  H   GCD d 525      31.059  12.867  -6.981  0.00  0.00     0.210 HD
ATOM     47  H   GCD d 525      31.328  15.462  -6.476  0.00  0.00     0.095 H 
ATOM     48  H   GCD d 525      27.908  12.963  -6.963  0.00  0.00     0.085 H 
ATOM     49  H   GCD d 525      31.025  15.231  -4.006  0.00  0.00     0.134 H 
ENDROOT
TORSDOF 12
ENDMDL
MODEL 17
REMARK VINA RESULT:      -6.9      2.845      6.457
REMARK  0 active torsions:
REMARK  status: ('A' for Active; 'I' for Inactive)
REMARK       I    between atoms: C1_1  and  O1_26 
REMARK       I    between atoms: C6_2  and  C5_3 
REMARK       I    between atoms: C8_4  and  C7_20 
REMARK       I    between atoms: O2_6  and  C2_15 
REMARK       I    between atoms: O4_7  and  C4_17 
REMARK       I    between atoms: O4_7  and  S_16 
REMARK       I    between atoms: C3_8  and  O3_9 
REMARK       I    between atoms: C6_10  and  C5_28 
REMARK       I    between atoms: C6_10  and  O6_14 
REMARK       I    between atoms: O3_13  and  C3_23 
REMARK       I    between atoms: O3_13  and  C1_30 
REMARK       I    between atoms: C7_20  and  N_27 
REMARK       I    between atoms: C2_24  and  N_27 
ROOT
ATOM      1  C1  ASG d 523      33.577  14.195  -7.138  0.00  0.00     0.151 C 
ATOM      2  C8  ASG d 523      33.072  10.846 -10.610  0.00  0.00    -0.003 C 
ATOM      3  O4  ASG d 523      34.400  11.888  -4.799  0.00  0.00    -0.246 OA
ATOM      4  C6  ASG d 523      33.679  14.359  -3.420  0.00  0.00     0.043 C 
ATOM      5  O5  ASG d 523      34.084  14.381  -5.799  0.00  0.00    -0.349 OA
ATOM      6  O3  ASG d 523      32.673  10.649  -6.397  0.00  0.00    -0.348 OA
ATOM      7  O6  ASG d 523      33.772  15.770  -3.355  0.00  0.00    -0.398 OA
ATOM      8  S   ASG d 523      34.776  10.920  -3.528  0.00  0.00     0.252 S 
ATOM      9  C4  ASG d 523      33.081  12.453  -4.900  0.00  0.00     0.114 C 
ATOM     10  OSB ASG d 523      36.309  10.691  -3.431  0.00  0.00    -0.572 OA
ATOM     11  C7  ASG d 523      33.764  11.353  -9.384  0.00  0.00     0.214 C 
ATOM     12  O7  ASG d 523      34.829  10.865  -9.119  0.00  0.00    -0.274 OA
ATOM     13  OSC ASG d 523      34.085   9.684  -3.710  0.00  0.00    -0.572 OA
ATOM     14  C3  ASG d 523      32.601  12.073  -6.296  0.00  0.00     0.094 C 
ATOM     15  C2  ASG d 523      33.556  12.676  -7.325  0.00  0.00     0.087 C 
ATOM     16  OSA ASG d 523      34.293  11.634  -2.377  0.00  0.00    -0.572 OA
ATOM     17  O1  ASG d 523      34.600  14.674  -7.956  0.00  0.00    -0.369 OA
ATOM     18  N   ASG d 523      33.146  12.303  -8.672  0.00  0.00    -0.349 N 
ATOM     19  C5  ASG d 523      33.156  13.965  -4.789  0.00  0.00     0.090 C 
ATOM     20  H   ASG d 523      32.630  14.655  -7.331  0.00  0.00     0.132 H 
ATOM     21  H   ASG d 523      32.141  11.360 -10.732  0.00  0.00     0.040 H 
ATOM     22  H   ASG d 523      32.890   9.797 -10.509  0.00  0.00     0.040 H 
ATOM     23  H   ASG d 523      33.689  11.021 -11.466  0.00  0.00     0.040 H 
ATOM     24  H   ASG d 523      34.647  13.928  -3.268  0.00  0.00     0.078 H 
ATOM     25  H   ASG d 523      33.015  14.003  -2.661  0.00  0.00     0.078 H 
ATOM     26  H   ASG d 523      34.376  16.086  -4.045  0.00  0.00     0.209 HD
ATOM     27  H   ASG d 523      32.431  12.099  -4.128  0.00  0.00     0.093 H 
ATOM     28  H   ASG d 523      31.607  12.428  -6.469  0.00  0.00     0.091 H 
ATOM     29  H   ASG d 523      34.546  12.298  -7.182  0.00  0.00     0.084 H 
ATOM     30  H   ASG d 523      35.429  14.222  -7.735  0.00  0.00     0.212 HD
ATOM     31  H   ASG d 523      32.380  12.771  -9.076  0.00  0.00     0.163 HD
ATOM     32  H   ASG d 523      32.195  14.420  -4.916  0.00  0.00     0.090 H 
ATOM     33  C6  GCD d 525      29.269  10.052  -3.868  0.00  0.00     0.233 C 
ATOM     34  C5  GCD d 525      30.178   9.594  -4.931  0.00  0.00     0.147 C 
ATOM     35  O6B GCD d 525      28.781  11.202  -3.896  0.00  0.00    -0.642 OA
ATOM     36  O2  GCD d 525      30.479   8.106  -7.845  0.00  0.00    -0.388 OA
ATOM     37  C3  GCD d 525      31.806   7.876  -5.822  0.00  0.00     0.084 C 
ATOM     38  O3  GCD d 525      33.168   7.934  -5.407  0.00  0.00    -0.389 OA
ATOM     39  O6A GCD d 525      29.004   9.244  -2.959  0.00  0.00    -0.642 OA
ATOM     40  C2  GCD d 525      31.634   8.602  -7.168  0.00  0.00     0.111 C 
ATOM     41  O5  GCD d 525      30.323  10.361  -6.162  0.00  0.00    -0.311 OA
ATOM     42  C4  GCD d 525      30.870   8.457  -4.775  0.00  0.00    -0.034 C 
ATOM     43  C1  GCD d 525      31.468  10.113  -6.977  0.00  0.00     0.165 C 
ATOM     44  H   GCD d 525      30.567   7.148  -7.975  0.00  0.00     0.210 HD
ATOM     45  H   GCD d 525      31.542   6.847  -5.945  0.00  0.00     0.093 H 
ATOM     46  H   GCD d 525      33.432   8.860  -5.288  0.00  0.00     0.210 HD
ATOM     47  H   GCD d 525      32.517   8.419  -7.744  0.00  0.00     0.095 H 
ATOM     48  H   GCD d 525      30.761   7.942  -3.888  0.00  0.00     0.085 H 
ATOM     49  H   GCD d 525      31.311  10.601  -7.917  0.00  0.00     0.134 H 
ENDROOT
TORSDOF 12
ENDMDL
MODEL 18
REMARK VINA RESULT:      -6.9      2.909      5.046
REMARK  0 active torsions:
REMARK  status: ('A' for Active; 'I' for Inactive)
REMARK       I    between atoms: C1_1  and  O1_26 
REMARK       I    between atoms: C6_2  and  C5_3 
REMARK       I    between atoms: C8_4  and  C7_20 
REMARK       I    between atoms: O2_6  and  C2_15 
REMARK       I    between atoms: O4_7  and  C4_17 
REMARK       I    between atoms: O4_7  and  S_16 
REMARK       I    between atoms: C3_8  and  O3_9 
REMARK       I    between atoms: C6_10  and  C5_28 
REMARK       I    between atoms: C6_10  and  O6_14 
REMARK       I    between atoms: O3_13  and  C3_23 
REMARK       I    between atoms: O3_13  and  C1_30 
REMARK       I    between atoms: C7_20  and  N_27 
REMARK       I    between atoms: C2_24  and  N_27 
ROOT
ATOM      1  C1  ASG d 523      34.158  11.598  -8.354  0.00  0.00     0.151 C 
ATOM      2  C8  ASG d 523      34.314  16.441  -8.584  0.00  0.00    -0.003 C 
ATOM      3  O4  ASG d 523      31.394  11.612  -6.396  0.00  0.00    -0.246 OA
ATOM      4  C6  ASG d 523      32.603   8.959  -6.239  0.00  0.00     0.043 C 
ATOM      5  O5  ASG d 523      33.306  10.503  -7.954  0.00  0.00    -0.349 OA
ATOM      6  O3  ASG d 523      32.747  13.786  -5.677  0.00  0.00    -0.348 OA
ATOM      7  O6  ASG d 523      33.215   7.875  -6.913  0.00  0.00    -0.398 OA
ATOM      8  S   ASG d 523      30.090  11.419  -5.420  0.00  0.00     0.252 S 
ATOM      9  C4  ASG d 523      32.717  11.414  -5.868  0.00  0.00     0.114 C 
ATOM     10  OSB ASG d 523      28.776  11.351  -6.244  0.00  0.00    -0.572 OA
ATOM     11  C7  ASG d 523      33.531  15.167  -8.521  0.00  0.00     0.214 C 
ATOM     12  O7  ASG d 523      32.369  15.227  -8.822  0.00  0.00    -0.274 OA
ATOM     13  OSC ASG d 523      30.067  12.521  -4.511  0.00  0.00    -0.572 OA
ATOM     14  C3  ASG d 523      33.475  12.686  -6.230  0.00  0.00     0.094 C 
ATOM     15  C2  ASG d 523      33.489  12.835  -7.750  0.00  0.00     0.087 C 
ATOM     16  OSA ASG d 523      30.331  10.175  -4.739  0.00  0.00    -0.572 OA
ATOM     17  O1  ASG d 523      33.970  11.687  -9.732  0.00  0.00    -0.369 OA
ATOM     18  N   ASG d 523      34.177  14.061  -8.130  0.00  0.00    -0.349 N 
ATOM     19  C5  ASG d 523      33.375  10.227  -6.549  0.00  0.00     0.090 C 
ATOM     20  H   ASG d 523      35.186  11.497  -8.072  0.00  0.00     0.132 H 
ATOM     21  H   ASG d 523      35.327  16.251  -8.294  0.00  0.00     0.040 H 
ATOM     22  H   ASG d 523      33.882  17.158  -7.918  0.00  0.00     0.040 H 
ATOM     23  H   ASG d 523      34.295  16.822  -9.582  0.00  0.00     0.040 H 
ATOM     24  H   ASG d 523      31.591   9.064  -6.571  0.00  0.00     0.078 H 
ATOM     25  H   ASG d 523      32.607   8.780  -5.184  0.00  0.00     0.078 H 
ATOM     26  H   ASG d 523      33.207   8.043  -7.868  0.00  0.00     0.209 HD
ATOM     27  H   ASG d 523      32.706  11.223  -4.816  0.00  0.00     0.093 H 
ATOM     28  H   ASG d 523      34.478  12.654  -5.856  0.00  0.00     0.091 H 
ATOM     29  H   ASG d 523      32.491  12.905  -8.127  0.00  0.00     0.084 H 
ATOM     30  H   ASG d 523      33.023  11.776  -9.924  0.00  0.00     0.212 HD
ATOM     31  H   ASG d 523      35.160  14.078  -8.097  0.00  0.00     0.163 HD
ATOM     32  H   ASG d 523      34.383  10.087  -6.217  0.00  0.00     0.090 H 
ATOM     33  C6  GCD d 525      33.957  12.892  -1.667  0.00  0.00     0.233 C 
ATOM     34  C5  GCD d 525      33.487  13.842  -2.687  0.00  0.00     0.147 C 
ATOM     35  O6B GCD d 525      34.916  12.125  -1.903  0.00  0.00    -0.642 OA
ATOM     36  O2  GCD d 525      33.734  16.861  -3.961  0.00  0.00    -0.388 OA
ATOM     37  C3  GCD d 525      31.767  15.517  -3.484  0.00  0.00     0.084 C 
ATOM     38  O3  GCD d 525      30.592  15.044  -4.138  0.00  0.00    -0.389 OA
ATOM     39  O6A GCD d 525      33.369  12.897  -0.571  0.00  0.00    -0.642 OA
ATOM     40  C2  GCD d 525      32.826  15.915  -4.526  0.00  0.00     0.111 C 
ATOM     41  O5  GCD d 525      34.280  14.097  -3.884  0.00  0.00    -0.311 OA
ATOM     42  C4  GCD d 525      32.326  14.491  -2.513  0.00  0.00    -0.034 C 
ATOM     43  C1  GCD d 525      33.632  14.701  -5.004  0.00  0.00     0.165 C 
ATOM     44  H   GCD d 525      33.240  17.638  -3.653  0.00  0.00     0.210 HD
ATOM     45  H   GCD d 525      31.500  16.380  -2.911  0.00  0.00     0.093 H 
ATOM     46  H   GCD d 525      30.809  14.259  -4.665  0.00  0.00     0.210 HD
ATOM     47  H   GCD d 525      32.309  16.340  -5.361  0.00  0.00     0.095 H 
ATOM     48  H   GCD d 525      31.777  14.279  -1.665  0.00  0.00     0.085 H 
ATOM     49  H   GCD d 525      34.391  14.997  -5.698  0.00  0.00     0.134 H 
ENDROOT
TORSDOF 12
ENDMDL
MODEL 19
REMARK VINA RESULT:      -6.9      2.634      4.858
REMARK  0 active torsions:
REMARK  status: ('A' for Active; 'I' for Inactive)
REMARK       I    between atoms: C1_1  and  O1_26 
REMARK       I    between atoms: C6_2  and  C5_3 
REMARK       I    between atoms: C8_4  and  C7_20 
REMARK       I    between atoms: O2_6  and  C2_15 
REMARK       I    between atoms: O4_7  and  C4_17 
REMARK       I    between atoms: O4_7  and  S_16 
REMARK       I    between atoms: C3_8  and  O3_9 
REMARK       I    between atoms: C6_10  and  C5_28 
REMARK       I    between atoms: C6_10  and  O6_14 
REMARK       I    between atoms: O3_13  and  C3_23 
REMARK       I    between atoms: O3_13  and  C1_30 
REMARK       I    between atoms: C7_20  and  N_27 
REMARK       I    between atoms: C2_24  and  N_27 
ROOT
ATOM      1  C1  ASG d 523      31.089  11.911  -8.283  0.00  0.00     0.151 C 
ATOM      2  C8  ASG d 523      32.304  16.336  -6.709  0.00  0.00    -0.003 C 
ATOM      3  O4  ASG d 523      30.344  10.823  -5.164  0.00  0.00    -0.246 OA
ATOM      4  C6  ASG d 523      30.635   8.488  -6.893  0.00  0.00     0.043 C 
ATOM      5  O5  ASG d 523      30.445  10.689  -7.863  0.00  0.00    -0.349 OA
ATOM      6  O3  ASG d 523      32.344  12.541  -4.823  0.00  0.00    -0.348 OA
ATOM      7  O6  ASG d 523      30.368   7.876  -8.141  0.00  0.00    -0.398 OA
ATOM      8  S   ASG d 523      29.975  10.108  -3.734  0.00  0.00     0.252 S 
ATOM      9  C4  ASG d 523      31.589  10.515  -5.815  0.00  0.00     0.114 C 
ATOM     10  OSB ASG d 523      28.478  10.312  -3.373  0.00  0.00    -0.572 OA
ATOM     11  C7  ASG d 523      31.448  15.112  -6.613  0.00  0.00     0.214 C 
ATOM     12  O7  ASG d 523      30.431  15.207  -5.983  0.00  0.00    -0.274 OA
ATOM     13  OSC ASG d 523      30.823  10.677  -2.736  0.00  0.00    -0.572 OA
ATOM     14  C3  ASG d 523      32.234  11.870  -6.081  0.00  0.00     0.094 C 
ATOM     15  C2  ASG d 523      31.310  12.687  -6.982  0.00  0.00     0.087 C 
ATOM     16  OSA ASG d 523      30.264   8.714  -3.943  0.00  0.00    -0.572 OA
ATOM     17  O1  ASG d 523      30.094  12.595  -8.980  0.00  0.00    -0.369 OA
ATOM     18  N   ASG d 523      31.881  14.004  -7.228  0.00  0.00    -0.349 N 
ATOM     19  C5  ASG d 523      31.323   9.818  -7.138  0.00  0.00     0.090 C 
ATOM     20  H   ASG d 523      31.987  11.778  -8.850  0.00  0.00     0.132 H 
ATOM     21  H   ASG d 523      33.174  16.118  -7.294  0.00  0.00     0.040 H 
ATOM     22  H   ASG d 523      32.602  16.641  -5.728  0.00  0.00     0.040 H 
ATOM     23  H   ASG d 523      31.749  17.123  -7.175  0.00  0.00     0.040 H 
ATOM     24  H   ASG d 523      29.717   8.650  -6.368  0.00  0.00     0.078 H 
ATOM     25  H   ASG d 523      31.267   7.855  -6.306  0.00  0.00     0.078 H 
ATOM     26  H   ASG d 523      29.794   8.454  -8.668  0.00  0.00     0.209 HD
ATOM     27  H   ASG d 523      32.205   9.872  -5.224  0.00  0.00     0.093 H 
ATOM     28  H   ASG d 523      33.190  11.754  -6.547  0.00  0.00     0.091 H 
ATOM     29  H   ASG d 523      30.364  12.839  -6.507  0.00  0.00     0.084 H 
ATOM     30  H   ASG d 523      29.309  12.685  -8.417  0.00  0.00     0.212 HD
ATOM     31  H   ASG d 523      32.619  14.082  -7.875  0.00  0.00     0.163 HD
ATOM     32  H   ASG d 523      32.229   9.625  -7.674  0.00  0.00     0.090 H 
ATOM     33  C6  GCD d 525      35.555  10.041  -3.489  0.00  0.00     0.233 C 
ATOM     34  C5  GCD d 525      34.807  11.308  -3.444  0.00  0.00     0.147 C 
ATOM     35  O6B GCD d 525      35.901   9.542  -4.581  0.00  0.00    -0.642 OA
ATOM     36  O2  GCD d 525      34.949  14.586  -3.271  0.00  0.00    -0.388 OA
ATOM     37  C3  GCD d 525      33.484  13.018  -2.132  0.00  0.00     0.084 C 
ATOM     38  O3  GCD d 525      32.093  12.797  -1.913  0.00  0.00    -0.389 OA
ATOM     39  O6A GCD d 525      35.832   9.506  -2.400  0.00  0.00    -0.642 OA
ATOM     40  C2  GCD d 525      33.687  13.925  -3.358  0.00  0.00     0.111 C 
ATOM     41  O5  GCD d 525      34.681  12.136  -4.638  0.00  0.00    -0.311 OA
ATOM     42  C4  GCD d 525      34.245  11.713  -2.296  0.00  0.00    -0.034 C 
ATOM     43  C1  GCD d 525      33.652  13.125  -4.665  0.00  0.00     0.165 C 
ATOM     44  H   GCD d 525      34.990  15.099  -2.448  0.00  0.00     0.210 HD
ATOM     45  H   GCD d 525      33.880  13.507  -1.267  0.00  0.00     0.093 H 
ATOM     46  H   GCD d 525      31.710  12.353  -2.686  0.00  0.00     0.210 HD
ATOM     47  H   GCD d 525      32.888  14.637  -3.364  0.00  0.00     0.095 H 
ATOM     48  H   GCD d 525      34.336  11.100  -1.472  0.00  0.00     0.085 H 
ATOM     49  H   GCD d 525      33.833  13.760  -5.506  0.00  0.00     0.134 H 
ENDROOT
TORSDOF 12
ENDMDL
MODEL 20
REMARK VINA RESULT:      -6.8      1.958      5.643
REMARK  0 active torsions:
REMARK  status: ('A' for Active; 'I' for Inactive)
REMARK       I    between atoms: C1_1  and  O1_26 
REMARK       I    between atoms: C6_2  and  C5_3 
REMARK       I    between atoms: C8_4  and  C7_20 
REMARK       I    between atoms: O2_6  and  C2_15 
REMARK       I    between atoms: O4_7  and  C4_17 
REMARK       I    between atoms: O4_7  and  S_16 
REMARK       I    between atoms: C3_8  and  O3_9 
REMARK       I    between atoms: C6_10  and  C5_28 
REMARK       I    between atoms: C6_10  and  O6_14 
REMARK       I    between atoms: O3_13  and  C3_23 
REMARK       I    between atoms: O3_13  and  C1_30 
REMARK       I    between atoms: C7_20  and  N_27 
REMARK       I    between atoms: C2_24  and  N_27 
ROOT
ATOM      1  C1  ASG d 523      29.689  15.456  -4.057  0.00  0.00     0.151 C 
ATOM      2  C8  ASG d 523      27.359  11.204  -4.205  0.00  0.00    -0.003 C 
ATOM      3  O4  ASG d 523      31.958  14.485  -6.377  0.00  0.00    -0.246 OA
ATOM      4  C6  ASG d 523      33.002  16.852  -5.023  0.00  0.00     0.043 C 
ATOM      5  O5  ASG d 523      30.685  16.235  -4.755  0.00  0.00    -0.349 OA
ATOM      6  O3  ASG d 523      31.378  12.269  -5.025  0.00  0.00    -0.348 OA
ATOM      7  O6  ASG d 523      32.757  18.143  -4.500  0.00  0.00    -0.398 OA
ATOM      8  S   ASG d 523      33.161  14.183  -7.451  0.00  0.00     0.252 S 
ATOM      9  C4  ASG d 523      32.243  14.486  -4.967  0.00  0.00     0.114 C 
ATOM     10  OSB ASG d 523      32.730  14.551  -8.896  0.00  0.00    -0.572 OA
ATOM     11  C7  ASG d 523      28.123  12.292  -4.893  0.00  0.00     0.214 C 
ATOM     12  O7  ASG d 523      28.066  12.324  -6.092  0.00  0.00    -0.274 OA
ATOM     13  OSC ASG d 523      33.488  12.796  -7.352  0.00  0.00    -0.572 OA
ATOM     14  C3  ASG d 523      31.222  13.528  -4.364  0.00  0.00     0.094 C 
ATOM     15  C2  ASG d 523      29.819  14.054  -4.658  0.00  0.00     0.087 C 
ATOM     16  OSA ASG d 523      34.250  15.017  -7.015  0.00  0.00    -0.572 OA
ATOM     17  O1  ASG d 523      28.477  15.967  -4.519  0.00  0.00    -0.369 OA
ATOM     18  N   ASG d 523      28.816  13.143  -4.125  0.00  0.00    -0.349 N 
ATOM     19  C5  ASG d 523      32.026  15.875  -4.395  0.00  0.00     0.090 C 
ATOM     20  H   ASG d 523      29.774  15.465  -2.991  0.00  0.00     0.132 H 
ATOM     21  H   ASG d 523      27.493  11.289  -3.147  0.00  0.00     0.040 H 
ATOM     22  H   ASG d 523      27.720  10.253  -4.535  0.00  0.00     0.040 H 
ATOM     23  H   ASG d 523      26.321  11.294  -4.442  0.00  0.00     0.040 H 
ATOM     24  H   ASG d 523      32.868  16.862  -6.085  0.00  0.00     0.078 H 
ATOM     25  H   ASG d 523      34.006  16.555  -4.801  0.00  0.00     0.078 H 
ATOM     26  H   ASG d 523      31.846  18.407  -4.705  0.00  0.00     0.209 HD
ATOM     27  H   ASG d 523      33.252  14.200  -4.760  0.00  0.00     0.093 H 
ATOM     28  H   ASG d 523      31.363  13.434  -3.307  0.00  0.00     0.091 H 
ATOM     29  H   ASG d 523      29.657  14.116  -5.713  0.00  0.00     0.084 H 
ATOM     30  H   ASG d 523      28.460  15.933  -5.488  0.00  0.00     0.212 HD
ATOM     31  H   ASG d 523      28.641  13.152  -3.157  0.00  0.00     0.163 HD
ATOM     32  H   ASG d 523      32.176  15.896  -3.336  0.00  0.00     0.090 H 
ATOM     33  C6  GCD d 525      35.046  11.380  -3.002  0.00  0.00     0.233 C 
ATOM     34  C5  GCD d 525      33.832  10.949  -3.714  0.00  0.00     0.147 C 
ATOM     35  O6B GCD d 525      34.978  12.209  -2.069  0.00  0.00    -0.642 OA
ATOM     36  O2  GCD d 525      31.356   8.795  -3.883  0.00  0.00    -0.388 OA
ATOM     37  C3  GCD d 525      32.752   9.720  -5.643  0.00  0.00     0.084 C 
ATOM     38  O3  GCD d 525      32.618  10.384  -6.897  0.00  0.00    -0.389 OA
ATOM     39  O6A GCD d 525      36.125  10.875  -3.361  0.00  0.00    -0.642 OA
ATOM     40  C2  GCD d 525      31.451   9.857  -4.833  0.00  0.00     0.111 C 
ATOM     41  O5  GCD d 525      32.511  11.270  -3.187  0.00  0.00    -0.311 OA
ATOM     42  C4  GCD d 525      33.937  10.244  -4.850  0.00  0.00    -0.034 C 
ATOM     43  C1  GCD d 525      31.396  11.187  -4.075  0.00  0.00     0.165 C 
ATOM     44  H   GCD d 525      31.389   7.943  -4.346  0.00  0.00     0.210 HD
ATOM     45  H   GCD d 525      32.936   8.684  -5.837  0.00  0.00     0.093 H 
ATOM     46  H   GCD d 525      32.451  11.328  -6.748  0.00  0.00     0.210 HD
ATOM     47  H   GCD d 525      30.638   9.817  -5.526  0.00  0.00     0.095 H 
ATOM     48  H   GCD d 525      34.884  10.045  -5.208  0.00  0.00     0.085 H 
ATOM     49  H   GCD d 525      30.505  11.253  -3.485  0.00  0.00     0.134 H 
ENDROOT
TORSDOF 12
ENDMDL
MODEL 21
REMARK VINA RESULT:      -6.8      2.901      5.498
REMARK  0 active torsions:
REMARK  status: ('A' for Active; 'I' for Inactive)
REMARK       I    between atoms: C1_1  and  O1_26 
REMARK       I    between atoms: C6_2  and  C5_3 
REMARK       I    between atoms: C8_4  and  C7_20 
REMARK       I    between atoms: O2_6  and  C2_15 
REMARK       I    between atoms: O4_7  and  C4_17 
REMARK       I    between atoms: O4_7  and  S_16 
REMARK       I    between atoms: C3_8  and  O3_9 
REMARK       I    between atoms: C6_10  and  C5_28 
REMARK       I    between atoms: C6_10  and  O6_14 
REMARK       I    between atoms: O3_13  and  C3_23 
REMARK       I    between atoms: O3_13  and  C1_30 
REMARK       I    between atoms: C7_20  and  N_27 
REMARK       I    between atoms: C2_24  and  N_27 
ROOT
ATOM      1  C1  ASG d 523      31.919  13.771  -2.920  0.00  0.00     0.151 C 
ATOM      2  C8  ASG d 523      33.494  16.869  -6.304  0.00  0.00    -0.003 C 
ATOM      3  O4  ASG d 523      33.721  11.202  -4.194  0.00  0.00    -0.246 OA
ATOM      4  C6  ASG d 523      31.706  10.092  -2.395  0.00  0.00     0.043 C 
ATOM      5  O5  ASG d 523      32.169  12.460  -2.370  0.00  0.00    -0.349 OA
ATOM      6  O3  ASG d 523      33.026  12.658  -6.308  0.00  0.00    -0.348 OA
ATOM      7  O6  ASG d 523      31.020  10.177  -1.160  0.00  0.00    -0.398 OA
ATOM      8  S   ASG d 523      34.486   9.836  -4.685  0.00  0.00     0.252 S 
ATOM      9  C4  ASG d 523      32.313  11.361  -4.444  0.00  0.00     0.114 C 
ATOM     10  OSB ASG d 523      35.892   9.716  -4.038  0.00  0.00    -0.572 OA
ATOM     11  C7  ASG d 523      33.734  15.704  -5.396  0.00  0.00     0.214 C 
ATOM     12  O7  ASG d 523      34.878  15.389  -5.204  0.00  0.00    -0.274 OA
ATOM     13  OSC ASG d 523      34.581   9.885  -6.109  0.00  0.00    -0.572 OA
ATOM     14  C3  ASG d 523      32.193  12.709  -5.147  0.00  0.00     0.094 C 
ATOM     15  C2  ASG d 523      32.730  13.796  -4.218  0.00  0.00     0.087 C 
ATOM     16  OSA ASG d 523      33.629   8.766  -4.248  0.00  0.00    -0.572 OA
ATOM     17  O1  ASG d 523      32.568  14.636  -2.040  0.00  0.00    -0.369 OA
ATOM     18  N   ASG d 523      32.662  15.095  -4.872  0.00  0.00    -0.349 N 
ATOM     19  C5  ASG d 523      31.555  11.411  -3.130  0.00  0.00     0.090 C 
ATOM     20  H   ASG d 523      30.886  14.011  -3.066  0.00  0.00     0.132 H 
ATOM     21  H   ASG d 523      32.442  17.044  -6.390  0.00  0.00     0.040 H 
ATOM     22  H   ASG d 523      33.901  16.657  -7.271  0.00  0.00     0.040 H 
ATOM     23  H   ASG d 523      33.968  17.739  -5.900  0.00  0.00     0.040 H 
ATOM     24  H   ASG d 523      32.743   9.896  -2.218  0.00  0.00     0.078 H 
ATOM     25  H   ASG d 523      31.296   9.299  -2.984  0.00  0.00     0.078 H 
ATOM     26  H   ASG d 523      31.397  10.897  -0.630  0.00  0.00     0.209 HD
ATOM     27  H   ASG d 523      31.913  10.555  -5.023  0.00  0.00     0.093 H 
ATOM     28  H   ASG d 523      31.176  12.917  -5.404  0.00  0.00     0.091 H 
ATOM     29  H   ASG d 523      33.758  13.615  -3.986  0.00  0.00     0.084 H 
ATOM     30  H   ASG d 523      33.496  14.369  -1.949  0.00  0.00     0.212 HD
ATOM     31  H   ASG d 523      31.790  15.546  -4.933  0.00  0.00     0.163 HD
ATOM     32  H   ASG d 523      30.510  11.584  -3.281  0.00  0.00     0.090 H 
ATOM     33  C6  GCD d 525      30.342  10.077  -8.424  0.00  0.00     0.233 C 
ATOM     34  C5  GCD d 525      31.413  11.087  -8.409  0.00  0.00     0.147 C 
ATOM     35  O6B GCD d 525      29.315  10.227  -7.728  0.00  0.00    -0.642 OA
ATOM     36  O2  GCD d 525      32.634  13.826  -9.751  0.00  0.00    -0.388 OA
ATOM     37  C3  GCD d 525      33.758  11.792  -9.044  0.00  0.00     0.084 C 
ATOM     38  O3  GCD d 525      34.849  11.386  -8.221  0.00  0.00    -0.389 OA
ATOM     39  O6A GCD d 525      30.503   9.088  -9.161  0.00  0.00    -0.642 OA
ATOM     40  C2  GCD d 525      33.299  13.207  -8.650  0.00  0.00     0.111 C 
ATOM     41  O5  GCD d 525      31.192  12.392  -7.800  0.00  0.00    -0.311 OA
ATOM     42  C4  GCD d 525      32.599  10.812  -8.971  0.00  0.00    -0.034 C 
ATOM     43  C1  GCD d 525      32.335  13.178  -7.460  0.00  0.00     0.165 C 
ATOM     44  H   GCD d 525      33.230  13.855 -10.515  0.00  0.00     0.210 HD
ATOM     45  H   GCD d 525      34.097  11.805 -10.058  0.00  0.00     0.093 H 
ATOM     46  H   GCD d 525      34.565  11.366  -7.293  0.00  0.00     0.210 HD
ATOM     47  H   GCD d 525      34.173  13.761  -8.377  0.00  0.00     0.095 H 
ATOM     48  H   GCD d 525      32.734   9.875  -9.381  0.00  0.00     0.085 H 
ATOM     49  H   GCD d 525      31.993  14.163  -7.221  0.00  0.00     0.134 H 
ENDROOT
TORSDOF 12
ENDMDL
MODEL 22
REMARK VINA RESULT:      -6.7      2.775      6.174
REMARK  0 active torsions:
REMARK  status: ('A' for Active; 'I' for Inactive)
REMARK       I    between atoms: C1_1  and  O1_26 
REMARK       I    between atoms: C6_2  and  C5_3 
REMARK       I    between atoms: C8_4  and  C7_20 
REMARK       I    between atoms: O2_6  and  C2_15 
REMARK       I    between atoms: O4_7  and  C4_17 
REMARK       I    between atoms: O4_7  and  S_16 
REMARK       I    between atoms: C3_8  and  O3_9 
REMARK       I    between atoms: C6_10  and  C5_28 
REMARK       I    between atoms: C6_10  and  O6_14 
REMARK       I    between atoms: O3_13  and  C3_23 
REMARK       I    between atoms: O3_13  and  C1_30 
REMARK       I    between atoms: C7_20  and  N_27 
REMARK       I    between atoms: C2_24  and  N_27 
ROOT
ATOM      1  C1  ASG d 523      33.531  14.684  -5.774  0.00  0.00     0.151 C 
ATOM      2  C8  ASG d 523      32.256  13.096 -10.177  0.00  0.00    -0.003 C 
ATOM      3  O4  ASG d 523      34.262  11.564  -4.677  0.00  0.00    -0.246 OA
ATOM      4  C6  ASG d 523      34.010  13.308  -2.349  0.00  0.00     0.043 C 
ATOM      5  O5  ASG d 523      34.184  14.265  -4.557  0.00  0.00    -0.349 OA
ATOM      6  O3  ASG d 523      32.241  11.231  -6.372  0.00  0.00    -0.348 OA
ATOM      7  O6  ASG d 523      34.294  14.557  -1.746  0.00  0.00    -0.398 OA
ATOM      8  S   ASG d 523      34.628  10.135  -3.958  0.00  0.00     0.252 S 
ATOM      9  C4  ASG d 523      33.026  12.227  -4.359  0.00  0.00     0.114 C 
ATOM     10  OSB ASG d 523      36.119   9.761  -4.176  0.00  0.00    -0.572 OA
ATOM     11  C7  ASG d 523      33.124  13.000  -8.962  0.00  0.00     0.214 C 
ATOM     12  O7  ASG d 523      34.136  12.360  -9.064  0.00  0.00    -0.274 OA
ATOM     13  OSC ASG d 523      33.765   9.141  -4.513  0.00  0.00    -0.572 OA
ATOM     14  C3  ASG d 523      32.369  12.491  -5.709  0.00  0.00     0.094 C 
ATOM     15  C2  ASG d 523      33.291  13.380  -6.540  0.00  0.00     0.087 C 
ATOM     16  OSA ASG d 523      34.355  10.354  -2.562  0.00  0.00    -0.572 OA
ATOM     17  O1  ASG d 523      34.524  15.368  -6.472  0.00  0.00    -0.369 OA
ATOM     18  N   ASG d 523      32.708  13.624  -7.852  0.00  0.00    -0.349 N 
ATOM     19  C5  ASG d 523      33.310  13.551  -3.672  0.00  0.00     0.090 C 
ATOM     20  H   ASG d 523      32.639  15.258  -5.634  0.00  0.00     0.132 H 
ATOM     21  H   ASG d 523      31.394  13.689  -9.953  0.00  0.00     0.040 H 
ATOM     22  H   ASG d 523      31.948  12.115 -10.473  0.00  0.00     0.040 H 
ATOM     23  H   ASG d 523      32.806  13.553 -10.972  0.00  0.00     0.040 H 
ATOM     24  H   ASG d 523      34.922  12.774  -2.517  0.00  0.00     0.078 H 
ATOM     25  H   ASG d 523      33.380  12.729  -1.706  0.00  0.00     0.078 H 
ATOM     26  H   ASG d 523      34.865  15.076  -2.332  0.00  0.00     0.209 HD
ATOM     27  H   ASG d 523      32.412  11.644  -3.706  0.00  0.00     0.093 H 
ATOM     28  H   ASG d 523      31.417  12.965  -5.585  0.00  0.00     0.091 H 
ATOM     29  H   ASG d 523      34.231  12.897  -6.700  0.00  0.00     0.084 H 
ATOM     30  H   ASG d 523      35.304  14.799  -6.567  0.00  0.00     0.212 HD
ATOM     31  H   ASG d 523      31.975  14.277  -7.927  0.00  0.00     0.163 HD
ATOM     32  H   ASG d 523      32.410  14.096  -3.472  0.00  0.00     0.090 H 
ATOM     33  C6  GCD d 525      29.047   9.936  -3.831  0.00  0.00     0.233 C 
ATOM     34  C5  GCD d 525      29.781   9.878  -5.105  0.00  0.00     0.147 C 
ATOM     35  O6B GCD d 525      28.715  11.033  -3.334  0.00  0.00    -0.642 OA
ATOM     36  O2  GCD d 525      29.602   9.688  -8.381  0.00  0.00    -0.388 OA
ATOM     37  C3  GCD d 525      31.075   8.546  -6.822  0.00  0.00     0.084 C 
ATOM     38  O3  GCD d 525      32.466   8.317  -6.614  0.00  0.00    -0.389 OA
ATOM     39  O6A GCD d 525      28.766   8.852  -3.287  0.00  0.00    -0.642 OA
ATOM     40  C2  GCD d 525      30.872   9.769  -7.734  0.00  0.00     0.111 C 
ATOM     41  O5  GCD d 525      29.907  11.066  -5.941  0.00  0.00    -0.311 OA
ATOM     42  C4  GCD d 525      30.329   8.724  -5.511  0.00  0.00    -0.034 C 
ATOM     43  C1  GCD d 525      30.926  11.079  -6.941  0.00  0.00     0.165 C 
ATOM     44  H   GCD d 525      29.550   8.864  -8.889  0.00  0.00     0.210 HD
ATOM     45  H   GCD d 525      30.667   7.681  -7.302  0.00  0.00     0.093 H 
ATOM     46  H   GCD d 525      32.860   9.089  -6.179  0.00  0.00     0.210 HD
ATOM     47  H   GCD d 525      31.664   9.765  -8.454  0.00  0.00     0.095 H 
ATOM     48  H   GCD d 525      30.238   7.903  -4.892  0.00  0.00     0.085 H 
ATOM     49  H   GCD d 525      30.745  11.919  -7.579  0.00  0.00     0.134 H 
ENDROOT
TORSDOF 12
ENDMDL
MODEL 23
REMARK VINA RESULT:      -6.7      2.868      5.670
REMARK  0 active torsions:
REMARK  status: ('A' for Active; 'I' for Inactive)
REMARK       I    between atoms: C1_1  and  O1_26 
REMARK       I    between atoms: C6_2  and  C5_3 
REMARK       I    between atoms: C8_4  and  C7_20 
REMARK       I    between atoms: O2_6  and  C2_15 
REMARK       I    between atoms: O4_7  and  C4_17 
REMARK       I    between atoms: O4_7  and  S_16 
REMARK       I    between atoms: C3_8  and  O3_9 
REMARK       I    between atoms: C6_10  and  C5_28 
REMARK       I    between atoms: C6_10  and  O6_14 
REMARK       I    between atoms: O3_13  and  C3_23 
REMARK       I    between atoms: O3_13  and  C1_30 
REMARK       I    between atoms: C7_20  and  N_27 
REMARK       I    between atoms: C2_24  and  N_27 
ROOT
ATOM      1  C1  ASG d 523      29.635  13.337  -4.570  0.00  0.00     0.151 C 
ATOM      2  C8  ASG d 523      33.589  13.308  -1.760  0.00  0.00    -0.003 C 
ATOM      3  O4  ASG d 523      31.393  14.232  -7.323  0.00  0.00    -0.246 OA
ATOM      4  C6  ASG d 523      28.563  14.719  -7.856  0.00  0.00     0.043 C 
ATOM      5  O5  ASG d 523      29.219  13.391  -5.951  0.00  0.00    -0.349 OA
ATOM      6  O3  ASG d 523      32.639  15.430  -5.303  0.00  0.00    -0.348 OA
ATOM      7  O6  ASG d 523      27.226  14.265  -7.758  0.00  0.00    -0.398 OA
ATOM      8  S   ASG d 523      32.062  14.698  -8.746  0.00  0.00     0.252 S 
ATOM      9  C4  ASG d 523      30.629  15.174  -6.551  0.00  0.00     0.114 C 
ATOM     10  OSB ASG d 523      32.549  13.473  -9.567  0.00  0.00    -0.572 OA
ATOM     11  C7  ASG d 523      32.933  13.064  -3.083  0.00  0.00     0.214 C 
ATOM     12  O7  ASG d 523      33.533  12.386  -3.872  0.00  0.00    -0.274 OA
ATOM     13  OSC ASG d 523      33.149  15.575  -8.443  0.00  0.00    -0.572 OA
ATOM     14  C3  ASG d 523      31.249  15.129  -5.158  0.00  0.00     0.094 C 
ATOM     15  C2  ASG d 523      31.119  13.710  -4.609  0.00  0.00     0.087 C 
ATOM     16  OSA ASG d 523      31.003  15.386  -9.435  0.00  0.00    -0.572 OA
ATOM     17  O1  ASG d 523      29.583  11.980  -4.254  0.00  0.00    -0.369 OA
ATOM     18  N   ASG d 523      31.733  13.622  -3.291  0.00  0.00    -0.349 N 
ATOM     19  C5  ASG d 523      29.181  14.726  -6.470  0.00  0.00     0.090 C 
ATOM     20  H   ASG d 523      29.066  13.949  -3.902  0.00  0.00     0.132 H 
ATOM     21  H   ASG d 523      32.954  13.921  -1.155  0.00  0.00     0.040 H 
ATOM     22  H   ASG d 523      34.524  13.805  -1.913  0.00  0.00     0.040 H 
ATOM     23  H   ASG d 523      33.757  12.374  -1.268  0.00  0.00     0.040 H 
ATOM     24  H   ASG d 523      29.119  14.064  -8.494  0.00  0.00     0.078 H 
ATOM     25  H   ASG d 523      28.582  15.706  -8.267  0.00  0.00     0.078 H 
ATOM     26  H   ASG d 523      27.215  13.370  -7.385  0.00  0.00     0.209 HD
ATOM     27  H   ASG d 523      30.646  16.154  -6.979  0.00  0.00     0.093 H 
ATOM     28  H   ASG d 523      30.765  15.821  -4.501  0.00  0.00     0.091 H 
ATOM     29  H   ASG d 523      31.632  13.016  -5.241  0.00  0.00     0.084 H 
ATOM     30  H   ASG d 523      30.115  11.479  -4.891  0.00  0.00     0.212 HD
ATOM     31  H   ASG d 523      31.245  13.989  -2.520  0.00  0.00     0.163 HD
ATOM     32  H   ASG d 523      28.597  15.379  -5.854  0.00  0.00     0.090 H 
ATOM     33  C6  GCD d 525      31.916  19.585  -6.045  0.00  0.00     0.233 C 
ATOM     34  C5  GCD d 525      32.792  18.492  -5.593  0.00  0.00     0.147 C 
ATOM     35  O6B GCD d 525      30.739  19.670  -5.635  0.00  0.00    -0.642 OA
ATOM     36  O2  GCD d 525      34.996  17.464  -3.383  0.00  0.00    -0.388 OA
ATOM     37  C3  GCD d 525      34.958  17.203  -5.798  0.00  0.00     0.084 C 
ATOM     38  O3  GCD d 525      35.060  16.174  -6.779  0.00  0.00    -0.389 OA
ATOM     39  O6A GCD d 525      32.403  20.415  -6.834  0.00  0.00    -0.642 OA
ATOM     40  C2  GCD d 525      34.576  16.597  -4.437  0.00  0.00     0.111 C 
ATOM     41  O5  GCD d 525      32.402  17.646  -4.471  0.00  0.00    -0.311 OA
ATOM     42  C4  GCD d 525      33.965  18.278  -6.206  0.00  0.00    -0.034 C 
ATOM     43  C1  GCD d 525      33.062  16.390  -4.316  0.00  0.00     0.165 C 
ATOM     44  H   GCD d 525      35.953  17.606  -3.443  0.00  0.00     0.210 HD
ATOM     45  H   GCD d 525      35.915  17.674  -5.714  0.00  0.00     0.093 H 
ATOM     46  H   GCD d 525      34.203  15.731  -6.874  0.00  0.00     0.210 HD
ATOM     47  H   GCD d 525      35.064  15.648  -4.362  0.00  0.00     0.095 H 
ATOM     48  H   GCD d 525      34.208  18.881  -7.007  0.00  0.00     0.085 H 
ATOM     49  H   GCD d 525      32.806  16.005  -3.351  0.00  0.00     0.134 H 
ENDROOT
TORSDOF 12
ENDMDL
MODEL 24
REMARK VINA RESULT:      -6.6      3.142      6.548
REMARK  0 active torsions:
REMARK  status: ('A' for Active; 'I' for Inactive)
REMARK       I    between atoms: C1_1  and  O1_26 
REMARK       I    between atoms: C6_2  and  C5_3 
REMARK       I    between atoms: C8_4  and  C7_20 
REMARK       I    between atoms: O2_6  and  C2_15 
REMARK       I    between atoms: O4_7  and  C4_17 
REMARK       I    between atoms: O4_7  and  S_16 
REMARK       I    between atoms: C3_8  and  O3_9 
REMARK       I    between atoms: C6_10  and  C5_28 
REMARK       I    between atoms: C6_10  and  O6_14 
REMARK       I    between atoms: O3_13  and  C3_23 
REMARK       I    between atoms: O3_13  and  C1_30 
REMARK       I    between atoms: C7_20  and  N_27 
REMARK       I    between atoms: C2_24  and  N_27 
ROOT
ATOM      1  C1  ASG d 523      33.972  15.437  -5.225  0.00  0.00     0.151 C 
ATOM      2  C8  ASG d 523      34.848  13.506  -0.863  0.00  0.00    -0.003 C 
ATOM      3  O4  ASG d 523      31.460  13.258  -5.871  0.00  0.00    -0.246 OA
ATOM      4  C6  ASG d 523      32.255  14.499  -8.392  0.00  0.00     0.043 C 
ATOM      5  O5  ASG d 523      33.007  15.435  -6.300  0.00  0.00    -0.349 OA
ATOM      6  O3  ASG d 523      33.199  11.876  -4.410  0.00  0.00    -0.348 OA
ATOM      7  O6  ASG d 523      32.619  15.675  -9.091  0.00  0.00    -0.398 OA
ATOM      8  S   ASG d 523      30.250  12.273  -6.377  0.00  0.00     0.252 S 
ATOM      9  C4  ASG d 523      32.784  13.097  -6.410  0.00  0.00     0.114 C 
ATOM     10  OSB ASG d 523      28.863  12.815  -5.938  0.00  0.00    -0.572 OA
ATOM     11  C7  ASG d 523      33.888  13.891  -1.944  0.00  0.00     0.214 C 
ATOM     12  O7  ASG d 523      32.725  13.940  -1.649  0.00  0.00    -0.274 OA
ATOM     13  OSC ASG d 523      30.491  10.977  -5.825  0.00  0.00    -0.572 OA
ATOM     14  C3  ASG d 523      33.688  12.971  -5.188  0.00  0.00     0.094 C 
ATOM     15  C2  ASG d 523      33.567  14.245  -4.354  0.00  0.00     0.087 C 
ATOM     16  OSA ASG d 523      30.365  12.267  -7.811  0.00  0.00    -0.572 OA
ATOM     17  O1  ASG d 523      33.658  16.580  -4.491  0.00  0.00    -0.369 OA
ATOM     18  N   ASG d 523      34.393  14.144  -3.159  0.00  0.00    -0.349 N 
ATOM     19  C5  ASG d 523      33.177  14.332  -7.199  0.00  0.00     0.090 C 
ATOM     20  H   ASG d 523      34.995  15.401  -5.536  0.00  0.00     0.132 H 
ATOM     21  H   ASG d 523      35.844  13.500  -1.255  0.00  0.00     0.040 H 
ATOM     22  H   ASG d 523      34.602  12.530  -0.499  0.00  0.00     0.040 H 
ATOM     23  H   ASG d 523      34.784  14.212  -0.062  0.00  0.00     0.040 H 
ATOM     24  H   ASG d 523      31.242  14.580  -8.055  0.00  0.00     0.078 H 
ATOM     25  H   ASG d 523      32.340  13.651  -9.039  0.00  0.00     0.078 H 
ATOM     26  H   ASG d 523      32.539  16.440  -8.500  0.00  0.00     0.209 HD
ATOM     27  H   ASG d 523      32.853  12.254  -7.064  0.00  0.00     0.093 H 
ATOM     28  H   ASG d 523      34.706  12.820  -5.479  0.00  0.00     0.091 H 
ATOM     29  H   ASG d 523      32.558  14.383  -4.028  0.00  0.00     0.084 H 
ATOM     30  H   ASG d 523      32.722  16.555  -4.239  0.00  0.00     0.212 HD
ATOM     31  H   ASG d 523      35.365  14.268  -3.248  0.00  0.00     0.163 HD
ATOM     32  H   ASG d 523      34.180  14.266  -7.567  0.00  0.00     0.090 H 
ATOM     33  C6  GCD d 525      34.665   8.942  -7.163  0.00  0.00     0.233 C 
ATOM     34  C5  GCD d 525      34.244   9.339  -5.810  0.00  0.00     0.147 C 
ATOM     35  O6B GCD d 525      35.464   9.647  -7.816  0.00  0.00    -0.642 OA
ATOM     36  O2  GCD d 525      34.820   9.155  -2.581  0.00  0.00    -0.388 OA
ATOM     37  C3  GCD d 525      32.730   9.014  -3.810  0.00  0.00     0.084 C 
ATOM     38  O3  GCD d 525      31.435   9.610  -3.820  0.00  0.00    -0.389 OA
ATOM     39  O6A GCD d 525      34.202   7.878  -7.613  0.00  0.00    -0.642 OA
ATOM     40  C2  GCD d 525      33.724   9.927  -3.072  0.00  0.00     0.111 C 
ATOM     41  O5  GCD d 525      34.938  10.408  -5.102  0.00  0.00    -0.311 OA
ATOM     42  C4  GCD d 525      33.221   8.708  -5.215  0.00  0.00    -0.034 C 
ATOM     43  C1  GCD d 525      34.279  11.019  -3.993  0.00  0.00     0.165 C 
ATOM     44  H   GCD d 525      34.487   8.458  -1.994  0.00  0.00     0.210 HD
ATOM     45  H   GCD d 525      32.660   8.082  -3.291  0.00  0.00     0.093 H 
ATOM     46  H   GCD d 525      31.472  10.459  -4.287  0.00  0.00     0.210 HD
ATOM     47  H   GCD d 525      33.195  10.388  -2.265  0.00  0.00     0.095 H 
ATOM     48  H   GCD d 525      32.737   7.967  -5.745  0.00  0.00     0.085 H 
ATOM     49  H   GCD d 525      34.999  11.622  -3.479  0.00  0.00     0.134 H 
ENDROOT
TORSDOF 12
ENDMDL
MODEL 25
REMARK VINA RESULT:      -6.6      2.572      4.898
REMARK  0 active torsions:
REMARK  status: ('A' for Active; 'I' for Inactive)
REMARK       I    between atoms: C1_1  and  O1_26 
REMARK       I    between atoms: C6_2  and  C5_3 
REMARK       I    between atoms: C8_4  and  C7_20 
REMARK       I    between atoms: O2_6  and  C2_15 
REMARK       I    between atoms: O4_7  and  C4_17 
REMARK       I    between atoms: O4_7  and  S_16 
REMARK       I    between atoms: C3_8  and  O3_9 
REMARK       I    between atoms: C6_10  and  C5_28 
REMARK       I    between atoms: C6_10  and  O6_14 
REMARK       I    between atoms: O3_13  and  C3_23 
REMARK       I    between atoms: O3_13  and  C1_30 
REMARK       I    between atoms: C7_20  and  N_27 
REMARK       I    between atoms: C2_24  and  N_27 
ROOT
ATOM      1  C1  ASG d 523      33.784  11.063  -6.866  0.00  0.00     0.151 C 
ATOM      2  C8  ASG d 523      30.333   8.646  -9.270  0.00  0.00    -0.003 C 
ATOM      3  O4  ASG d 523      32.320  10.501  -3.864  0.00  0.00    -0.246 OA
ATOM      4  C6  ASG d 523      34.262  12.657  -3.537  0.00  0.00     0.043 C 
ATOM      5  O5  ASG d 523      34.288  11.306  -5.535  0.00  0.00    -0.349 OA
ATOM      6  O3  ASG d 523      30.297  10.719  -5.575  0.00  0.00    -0.348 OA
ATOM      7  O6  ASG d 523      35.551  13.167  -3.821  0.00  0.00    -0.398 OA
ATOM      8  S   ASG d 523      31.744  10.366  -2.334  0.00  0.00     0.252 S 
ATOM      9  C4  ASG d 523      32.191  11.749  -4.568  0.00  0.00     0.114 C 
ATOM     10  OSB ASG d 523      32.270   9.076  -1.647  0.00  0.00    -0.572 OA
ATOM     11  C7  ASG d 523      31.198   8.816  -8.061  0.00  0.00     0.214 C 
ATOM     12  O7  ASG d 523      31.289   7.876  -7.319  0.00  0.00    -0.274 OA
ATOM     13  OSC ASG d 523      30.318  10.360  -2.410  0.00  0.00    -0.572 OA
ATOM     14  C3  ASG d 523      31.524  11.382  -5.889  0.00  0.00     0.094 C 
ATOM     15  C2  ASG d 523      32.423  10.400  -6.638  0.00  0.00     0.087 C 
ATOM     16  OSA ASG d 523      32.233  11.539  -1.659  0.00  0.00    -0.572 OA
ATOM     17  O1  ASG d 523      34.621  10.069  -7.369  0.00  0.00    -0.369 OA
ATOM     18  N   ASG d 523      31.799  10.001  -7.891  0.00  0.00    -0.349 N 
ATOM     19  C5  ASG d 523      33.565  12.333  -4.844  0.00  0.00     0.090 C 
ATOM     20  H   ASG d 523      33.729  11.928  -7.494  0.00  0.00     0.132 H 
ATOM     21  H   ASG d 523      30.338   9.550  -9.843  0.00  0.00     0.040 H 
ATOM     22  H   ASG d 523      29.332   8.423  -8.964  0.00  0.00     0.040 H 
ATOM     23  H   ASG d 523      30.710   7.843  -9.868  0.00  0.00     0.040 H 
ATOM     24  H   ASG d 523      34.348  11.770  -2.945  0.00  0.00     0.078 H 
ATOM     25  H   ASG d 523      33.696  13.385  -2.994  0.00  0.00     0.078 H 
ATOM     26  H   ASG d 523      36.060  12.504  -4.312  0.00  0.00     0.209 HD
ATOM     27  H   ASG d 523      31.634  12.471  -4.009  0.00  0.00     0.093 H 
ATOM     28  H   ASG d 523      31.356  12.253  -6.487  0.00  0.00     0.091 H 
ATOM     29  H   ASG d 523      32.566   9.511  -6.061  0.00  0.00     0.084 H 
ATOM     30  H   ASG d 523      34.630   9.314  -6.759  0.00  0.00     0.212 HD
ATOM     31  H   ASG d 523      31.819  10.631  -8.647  0.00  0.00     0.163 HD
ATOM     32  H   ASG d 523      33.504  13.235  -5.417  0.00  0.00     0.090 H 
ATOM     33  C6  GCD d 525      28.369  14.338  -4.342  0.00  0.00     0.233 C 
ATOM     34  C5  GCD d 525      28.311  12.960  -4.855  0.00  0.00     0.147 C 
ATOM     35  O6B GCD d 525      29.150  15.174  -4.844  0.00  0.00    -0.642 OA
ATOM     36  O2  GCD d 525      26.919  10.865  -6.969  0.00  0.00    -0.388 OA
ATOM     37  C3  GCD d 525      27.495  10.577  -4.626  0.00  0.00     0.084 C 
ATOM     38  O3  GCD d 525      28.217   9.676  -3.790  0.00  0.00    -0.389 OA
ATOM     39  O6A GCD d 525      27.604  14.628  -3.404  0.00  0.00    -0.642 OA
ATOM     40  C2  GCD d 525      27.949  10.418  -6.088  0.00  0.00     0.111 C 
ATOM     41  O5  GCD d 525      28.959  12.611  -6.113  0.00  0.00    -0.311 OA
ATOM     42  C4  GCD d 525      27.647  12.018  -4.169  0.00  0.00    -0.034 C 
ATOM     43  C1  GCD d 525      29.216  11.232  -6.377  0.00  0.00     0.165 C 
ATOM     44  H   GCD d 525      26.108  10.360  -6.800  0.00  0.00     0.210 HD
ATOM     45  H   GCD d 525      26.456  10.332  -4.555  0.00  0.00     0.093 H 
ATOM     46  H   GCD d 525      29.165   9.879  -3.837  0.00  0.00     0.210 HD
ATOM     47  H   GCD d 525      28.158   9.381  -6.246  0.00  0.00     0.095 H 
ATOM     48  H   GCD d 525      27.212  12.289  -3.274  0.00  0.00     0.085 H 
ATOM     49  H   GCD d 525      29.499  11.144  -7.405  0.00  0.00     0.134 H 
ENDROOT
TORSDOF 12
ENDMDL
MODEL 26
REMARK VINA RESULT:      -6.6      2.794      5.978
REMARK  0 active torsions:
REMARK  status: ('A' for Active; 'I' for Inactive)
REMARK       I    between atoms: C1_1  and  O1_26 
REMARK       I    between atoms: C6_2  and  C5_3 
REMARK       I    between atoms: C8_4  and  C7_20 
REMARK       I    between atoms: O2_6  and  C2_15 
REMARK       I    between atoms: O4_7  and  C4_17 
REMARK       I    between atoms: O4_7  and  S_16 
REMARK       I    between atoms: C3_8  and  O3_9 
REMARK       I    between atoms: C6_10  and  C5_28 
REMARK       I    between atoms: C6_10  and  O6_14 
REMARK       I    between atoms: O3_13  and  C3_23 
REMARK       I    between atoms: O3_13  and  C1_30 
REMARK       I    between atoms: C7_20  and  N_27 
REMARK       I    between atoms: C2_24  and  N_27 
ROOT
ATOM      1  C1  ASG d 523      32.718  14.262  -2.852  0.00  0.00     0.151 C 
ATOM      2  C8  ASG d 523      35.405  10.247  -3.280  0.00  0.00    -0.003 C 
ATOM      3  O4  ASG d 523      29.952  12.744  -4.083  0.00  0.00    -0.246 OA
ATOM      4  C6  ASG d 523      29.524  15.631  -4.186  0.00  0.00     0.043 C 
ATOM      5  O5  ASG d 523      31.353  14.730  -2.896  0.00  0.00    -0.349 OA
ATOM      6  O3  ASG d 523      31.981  11.607  -5.372  0.00  0.00    -0.348 OA
ATOM      7  O6  ASG d 523      29.643  16.887  -3.545  0.00  0.00    -0.398 OA
ATOM      8  S   ASG d 523      28.529  12.196  -4.689  0.00  0.00     0.252 S 
ATOM      9  C4  ASG d 523      30.784  13.604  -4.881  0.00  0.00     0.114 C 
ATOM     10  OSB ASG d 523      27.646  11.572  -3.574  0.00  0.00    -0.572 OA
ATOM     11  C7  ASG d 523      34.094  10.908  -2.993  0.00  0.00     0.214 C 
ATOM     12  O7  ASG d 523      33.261  10.247  -2.435  0.00  0.00    -0.274 OA
ATOM     13  OSC ASG d 523      28.835  11.233  -5.699  0.00  0.00    -0.572 OA
ATOM     14  C3  ASG d 523      32.154  12.936  -4.873  0.00  0.00     0.094 C 
ATOM     15  C2  ASG d 523      32.650  12.847  -3.431  0.00  0.00     0.087 C 
ATOM     16  OSA ASG d 523      27.900  13.365  -5.245  0.00  0.00    -0.572 OA
ATOM     17  O1  ASG d 523      32.981  14.113  -1.491  0.00  0.00    -0.369 OA
ATOM     18  N   ASG d 523      33.944  12.180  -3.384  0.00  0.00    -0.349 N 
ATOM     19  C5  ASG d 523      30.890  14.972  -4.231  0.00  0.00     0.090 C 
ATOM     20  H   ASG d 523      33.427  14.887  -3.354  0.00  0.00     0.132 H 
ATOM     21  H   ASG d 523      36.054  10.939  -3.776  0.00  0.00     0.040 H 
ATOM     22  H   ASG d 523      35.245   9.396  -3.909  0.00  0.00     0.040 H 
ATOM     23  H   ASG d 523      35.854   9.933  -2.362  0.00  0.00     0.040 H 
ATOM     24  H   ASG d 523      28.844  15.011  -3.639  0.00  0.00     0.078 H 
ATOM     25  H   ASG d 523      29.152  15.764  -5.180  0.00  0.00     0.078 H 
ATOM     26  H   ASG d 523      29.980  16.760  -2.644  0.00  0.00     0.209 HD
ATOM     27  H   ASG d 523      30.394  13.739  -5.867  0.00  0.00     0.093 H 
ATOM     28  H   ASG d 523      32.853  13.488  -5.467  0.00  0.00     0.091 H 
ATOM     29  H   ASG d 523      31.976  12.265  -2.840  0.00  0.00     0.084 H 
ATOM     30  H   ASG d 523      32.308  13.539  -1.093  0.00  0.00     0.212 HD
ATOM     31  H   ASG d 523      34.744  12.688  -3.651  0.00  0.00     0.163 HD
ATOM     32  H   ASG d 523      31.548  15.619  -4.772  0.00  0.00     0.090 H 
ATOM     33  C6  GCD d 525      31.428  12.928  -9.408  0.00  0.00     0.233 C 
ATOM     34  C5  GCD d 525      31.809  11.892  -8.434  0.00  0.00     0.147 C 
ATOM     35  O6B GCD d 525      31.875  14.091  -9.312  0.00  0.00    -0.642 OA
ATOM     36  O2  GCD d 525      33.910   9.491  -7.647  0.00  0.00    -0.388 OA
ATOM     37  C3  GCD d 525      31.488   9.576  -7.470  0.00  0.00     0.084 C 
ATOM     38  O3  GCD d 525      30.464   9.366  -6.502  0.00  0.00    -0.389 OA
ATOM     39  O6A GCD d 525      30.658  12.589 -10.325  0.00  0.00    -0.642 OA
ATOM     40  C2  GCD d 525      32.835   9.822  -6.768  0.00  0.00     0.111 C 
ATOM     41  O5  GCD d 525      32.907  12.121  -7.502  0.00  0.00    -0.311 OA
ATOM     42  C4  GCD d 525      31.153  10.724  -8.408  0.00  0.00    -0.034 C 
ATOM     43  C1  GCD d 525      32.992  11.287  -6.346  0.00  0.00     0.165 C 
ATOM     44  H   GCD d 525      33.827   8.565  -7.925  0.00  0.00     0.210 HD
ATOM     45  H   GCD d 525      31.562   8.692  -8.068  0.00  0.00     0.093 H 
ATOM     46  H   GCD d 525      30.377  10.157  -5.946  0.00  0.00     0.210 HD
ATOM     47  H   GCD d 525      32.857   9.204  -5.895  0.00  0.00     0.095 H 
ATOM     48  H   GCD d 525      30.370  10.595  -9.067  0.00  0.00     0.085 H 
ATOM     49  H   GCD d 525      33.948  11.454  -5.895  0.00  0.00     0.134 H 
ENDROOT
TORSDOF 12
ENDMDL
MODEL 27
REMARK VINA RESULT:      -6.6      2.332      3.379
REMARK  0 active torsions:
REMARK  status: ('A' for Active; 'I' for Inactive)
REMARK       I    between atoms: C1_1  and  O1_26 
REMARK       I    between atoms: C6_2  and  C5_3 
REMARK       I    between atoms: C8_4  and  C7_20 
REMARK       I    between atoms: O2_6  and  C2_15 
REMARK       I    between atoms: O4_7  and  C4_17 
REMARK       I    between atoms: O4_7  and  S_16 
REMARK       I    between atoms: C3_8  and  O3_9 
REMARK       I    between atoms: C6_10  and  C5_28 
REMARK       I    between atoms: C6_10  and  O6_14 
REMARK       I    between atoms: O3_13  and  C3_23 
REMARK       I    between atoms: O3_13  and  C1_30 
REMARK       I    between atoms: C7_20  and  N_27 
REMARK       I    between atoms: C2_24  and  N_27 
ROOT
ATOM      1  C1  ASG d 523      29.387  13.295  -5.652  0.00  0.00     0.151 C 
ATOM      2  C8  ASG d 523      28.726  17.819  -4.031  0.00  0.00    -0.003 C 
ATOM      3  O4  ASG d 523      32.519  13.116  -4.377  0.00  0.00    -0.246 OA
ATOM      4  C6  ASG d 523      32.208  10.961  -6.322  0.00  0.00     0.043 C 
ATOM      5  O5  ASG d 523      30.268  12.158  -5.530  0.00  0.00    -0.349 OA
ATOM      6  O3  ASG d 523      32.218  15.662  -5.084  0.00  0.00    -0.348 OA
ATOM      7  O6  ASG d 523      31.399   9.927  -6.851  0.00  0.00    -0.398 OA
ATOM      8  S   ASG d 523      34.057  12.858  -3.868  0.00  0.00     0.252 S 
ATOM      9  C4  ASG d 523      32.262  13.383  -5.766  0.00  0.00     0.114 C 
ATOM     10  OSB ASG d 523      34.083  12.270  -2.431  0.00  0.00    -0.572 OA
ATOM     11  C7  ASG d 523      29.303  16.449  -3.861  0.00  0.00     0.214 C 
ATOM     12  O7  ASG d 523      29.674  16.147  -2.759  0.00  0.00    -0.274 OA
ATOM     13  OSC ASG d 523      34.744  14.109  -3.921  0.00  0.00    -0.572 OA
ATOM     14  C3  ASG d 523      31.448  14.672  -5.771  0.00  0.00     0.094 C 
ATOM     15  C2  ASG d 523      30.156  14.441  -4.991  0.00  0.00     0.087 C 
ATOM     16  OSA ASG d 523      34.596  11.917  -4.814  0.00  0.00    -0.572 OA
ATOM     17  O1  ASG d 523      28.327  12.993  -4.798  0.00  0.00    -0.369 OA
ATOM     18  N   ASG d 523      29.369  15.665  -4.945  0.00  0.00    -0.349 N 
ATOM     19  C5  ASG d 523      31.430  12.262  -6.364  0.00  0.00     0.090 C 
ATOM     20  H   ASG d 523      29.075  13.520  -6.650  0.00  0.00     0.132 H 
ATOM     21  H   ASG d 523      28.436  17.959  -5.052  0.00  0.00     0.040 H 
ATOM     22  H   ASG d 523      29.460  18.550  -3.765  0.00  0.00     0.040 H 
ATOM     23  H   ASG d 523      27.870  17.926  -3.400  0.00  0.00     0.040 H 
ATOM     24  H   ASG d 523      32.468  10.730  -5.310  0.00  0.00     0.078 H 
ATOM     25  H   ASG d 523      33.103  11.053  -6.900  0.00  0.00     0.078 H 
ATOM     26  H   ASG d 523      30.589   9.848  -6.323  0.00  0.00     0.209 HD
ATOM     27  H   ASG d 523      33.164  13.460  -6.335  0.00  0.00     0.093 H 
ATOM     28  H   ASG d 523      31.222  14.978  -6.771  0.00  0.00     0.091 H 
ATOM     29  H   ASG d 523      30.374  14.170  -3.979  0.00  0.00     0.084 H 
ATOM     30  H   ASG d 523      28.671  12.799  -3.912  0.00  0.00     0.212 HD
ATOM     31  H   ASG d 523      28.863  15.928  -5.747  0.00  0.00     0.163 HD
ATOM     32  H   ASG d 523      31.175  12.459  -7.385  0.00  0.00     0.090 H 
ATOM     33  C6  GCD d 525      34.993  16.106  -8.315  0.00  0.00     0.233 C 
ATOM     34  C5  GCD d 525      34.317  16.632  -7.118  0.00  0.00     0.147 C 
ATOM     35  O6B GCD d 525      34.338  15.563  -9.231  0.00  0.00    -0.642 OA
ATOM     36  O2  GCD d 525      32.878  19.210  -5.677  0.00  0.00    -0.388 OA
ATOM     37  C3  GCD d 525      34.447  17.587  -4.780  0.00  0.00     0.084 C 
ATOM     38  O3  GCD d 525      34.573  16.696  -3.674  0.00  0.00    -0.389 OA
ATOM     39  O6A GCD d 525      36.229  16.238  -8.375  0.00  0.00    -0.642 OA
ATOM     40  C2  GCD d 525      32.970  17.962  -4.990  0.00  0.00     0.111 C 
ATOM     41  O5  GCD d 525      32.866  16.770  -7.086  0.00  0.00    -0.311 OA
ATOM     42  C4  GCD d 525      35.039  17.000  -6.050  0.00  0.00    -0.034 C 
ATOM     43  C1  GCD d 525      32.231  16.903  -5.815  0.00  0.00     0.165 C 
ATOM     44  H   GCD d 525      33.341  19.894  -5.168  0.00  0.00     0.210 HD
ATOM     45  H   GCD d 525      35.003  18.473  -4.553  0.00  0.00     0.093 H 
ATOM     46  H   GCD d 525      34.076  15.882  -3.856  0.00  0.00     0.210 HD
ATOM     47  H   GCD d 525      32.517  18.028  -4.023  0.00  0.00     0.095 H 
ATOM     48  H   GCD d 525      36.063  16.876  -6.093  0.00  0.00     0.085 H 
ATOM     49  H   GCD d 525      31.216  17.193  -5.987  0.00  0.00     0.134 H 
ENDROOT
TORSDOF 12
ENDMDL
MODEL 28
REMARK VINA RESULT:      -6.6      2.536      4.869
REMARK  0 active torsions:
REMARK  status: ('A' for Active; 'I' for Inactive)
REMARK       I    between atoms: C1_1  and  O1_26 
REMARK       I    between atoms: C6_2  and  C5_3 
REMARK       I    between atoms: C8_4  and  C7_20 
REMARK       I    between atoms: O2_6  and  C2_15 
REMARK       I    between atoms: O4_7  and  C4_17 
REMARK       I    between atoms: O4_7  and  S_16 
REMARK       I    between atoms: C3_8  and  O3_9 
REMARK       I    between atoms: C6_10  and  C5_28 
REMARK       I    between atoms: C6_10  and  O6_14 
REMARK       I    between atoms: O3_13  and  C3_23 
REMARK       I    between atoms: O3_13  and  C1_30 
REMARK       I    between atoms: C7_20  and  N_27 
REMARK       I    between atoms: C2_24  and  N_27 
ROOT
ATOM      1  C1  ASG d 523      28.918  11.180  -5.706  0.00  0.00     0.151 C 
ATOM      2  C8  ASG d 523      31.554  10.043  -1.796  0.00  0.00    -0.003 C 
ATOM      3  O4  ASG d 523      31.552  12.624  -7.270  0.00  0.00    -0.246 OA
ATOM      4  C6  ASG d 523      29.112  13.486  -8.621  0.00  0.00     0.043 C 
ATOM      5  O5  ASG d 523      29.041  11.641  -7.069  0.00  0.00    -0.349 OA
ATOM      6  O3  ASG d 523      31.943  13.117  -4.686  0.00  0.00    -0.348 OA
ATOM      7  O6  ASG d 523      27.842  13.144  -9.143  0.00  0.00    -0.398 OA
ATOM      8  S   ASG d 523      32.692  13.395  -8.163  0.00  0.00     0.252 S 
ATOM      9  C4  ASG d 523      30.541  13.388  -6.590  0.00  0.00     0.114 C 
ATOM     10  OSB ASG d 523      33.469  12.398  -9.065  0.00  0.00    -0.572 OA
ATOM     11  C7  ASG d 523      31.437  10.224  -3.277  0.00  0.00     0.214 C 
ATOM     12  O7  ASG d 523      32.299   9.734  -3.955  0.00  0.00    -0.274 OA
ATOM     13  OSC ASG d 523      33.574  14.057  -7.255  0.00  0.00    -0.572 OA
ATOM     14  C3  ASG d 523      30.603  12.913  -5.142  0.00  0.00     0.094 C 
ATOM     15  C2  ASG d 523      30.304  11.416  -5.102  0.00  0.00     0.087 C 
ATOM     16  OSA ASG d 523      31.950  14.334  -8.961  0.00  0.00    -0.572 OA
ATOM     17  O1  ASG d 523      28.777   9.799  -5.828  0.00  0.00    -0.369 OA
ATOM     18  N   ASG d 523      30.390  10.922  -3.735  0.00  0.00    -0.349 N 
ATOM     19  C5  ASG d 523      29.173  13.065  -7.165  0.00  0.00     0.090 C 
ATOM     20  H   ASG d 523      28.132  11.638  -5.143  0.00  0.00     0.132 H 
ATOM     21  H   ASG d 523      30.729  10.524  -1.312  0.00  0.00     0.040 H 
ATOM     22  H   ASG d 523      32.470  10.478  -1.455  0.00  0.00     0.040 H 
ATOM     23  H   ASG d 523      31.545   9.000  -1.563  0.00  0.00     0.040 H 
ATOM     24  H   ASG d 523      29.876  12.981  -9.174  0.00  0.00     0.078 H 
ATOM     25  H   ASG d 523      29.264  14.542  -8.701  0.00  0.00     0.078 H 
ATOM     26  H   ASG d 523      27.709  12.186  -9.069  0.00  0.00     0.209 HD
ATOM     27  H   ASG d 523      30.697  14.441  -6.688  0.00  0.00     0.093 H 
ATOM     28  H   ASG d 523      29.899  13.443  -4.535  0.00  0.00     0.091 H 
ATOM     29  H   ASG d 523      31.027  10.876  -5.676  0.00  0.00     0.084 H 
ATOM     30  H   ASG d 523      29.515   9.442  -6.346  0.00  0.00     0.212 HD
ATOM     31  H   ASG d 523      29.645  11.110  -3.120  0.00  0.00     0.163 HD
ATOM     32  H   ASG d 523      28.392  13.577  -6.642  0.00  0.00     0.090 H 
ATOM     33  C6  GCD d 525      31.472  17.366  -4.428  0.00  0.00     0.233 C 
ATOM     34  C5  GCD d 525      32.138  16.118  -4.021  0.00  0.00     0.147 C 
ATOM     35  O6B GCD d 525      30.225  17.442  -4.463  0.00  0.00    -0.642 OA
ATOM     36  O2  GCD d 525      33.387  14.340  -1.557  0.00  0.00    -0.388 OA
ATOM     37  C3  GCD d 525      34.249  14.745  -3.791  0.00  0.00     0.084 C 
ATOM     38  O3  GCD d 525      34.725  14.014  -4.919  0.00  0.00    -0.389 OA
ATOM     39  O6A GCD d 525      32.202  18.331  -4.720  0.00  0.00    -0.642 OA
ATOM     40  C2  GCD d 525      33.402  13.830  -2.890  0.00  0.00     0.111 C 
ATOM     41  O5  GCD d 525      31.377  15.039  -3.404  0.00  0.00    -0.311 OA
ATOM     42  C4  GCD d 525      33.458  15.973  -4.207  0.00  0.00    -0.034 C 
ATOM     43  C1  GCD d 525      31.954  13.734  -3.384  0.00  0.00     0.165 C 
ATOM     44  H   GCD d 525      34.297  14.408  -1.226  0.00  0.00     0.210 HD
ATOM     45  H   GCD d 525      35.099  15.088  -3.240  0.00  0.00     0.093 H 
ATOM     46  H   GCD d 525      33.971  13.691  -5.437  0.00  0.00     0.210 HD
ATOM     47  H   GCD d 525      33.844  12.857  -2.917  0.00  0.00     0.095 H 
ATOM     48  H   GCD d 525      33.970  16.746  -4.661  0.00  0.00     0.085 H 
ATOM     49  H   GCD d 525      31.366  13.127  -2.728  0.00  0.00     0.134 H 
ENDROOT
TORSDOF 12
ENDMDL
MODEL 29
REMARK VINA RESULT:      -6.6      3.112      5.821
REMARK  0 active torsions:
REMARK  status: ('A' for Active; 'I' for Inactive)
REMARK       I    between atoms: C1_1  and  O1_26 
REMARK       I    between atoms: C6_2  and  C5_3 
REMARK       I    between atoms: C8_4  and  C7_20 
REMARK       I    between atoms: O2_6  and  C2_15 
REMARK       I    between atoms: O4_7  and  C4_17 
REMARK       I    between atoms: O4_7  and  S_16 
REMARK       I    between atoms: C3_8  and  O3_9 
REMARK       I    between atoms: C6_10  and  C5_28 
REMARK       I    between atoms: C6_10  and  O6_14 
REMARK       I    between atoms: O3_13  and  C3_23 
REMARK       I    between atoms: O3_13  and  C1_30 
REMARK       I    between atoms: C7_20  and  N_27 
REMARK       I    between atoms: C2_24  and  N_27 
ROOT
ATOM      1  C1  ASG d 523      34.563  16.283  -4.912  0.00  0.00     0.151 C 
ATOM      2  C8  ASG d 523      32.904  18.110  -9.088  0.00  0.00    -0.003 C 
ATOM      3  O4  ASG d 523      32.356  13.715  -4.964  0.00  0.00    -0.246 OA
ATOM      4  C6  ASG d 523      33.436  13.927  -2.259  0.00  0.00     0.043 C 
ATOM      5  O5  ASG d 523      34.497  15.108  -4.076  0.00  0.00    -0.349 OA
ATOM      6  O3  ASG d 523      31.062  15.745  -6.093  0.00  0.00    -0.348 OA
ATOM      7  O6  ASG d 523      34.564  14.119  -1.427  0.00  0.00    -0.398 OA
ATOM      8  S   ASG d 523      31.345  12.433  -4.797  0.00  0.00     0.252 S 
ATOM      9  C4  ASG d 523      32.157  14.891  -4.161  0.00  0.00     0.114 C 
ATOM     10  OSB ASG d 523      31.918  11.170  -5.494  0.00  0.00    -0.572 OA
ATOM     11  C7  ASG d 523      33.225  16.933  -8.220  0.00  0.00     0.214 C 
ATOM     12  O7  ASG d 523      33.296  15.862  -8.759  0.00  0.00    -0.274 OA
ATOM     13  OSC ASG d 523      30.086  12.802  -5.361  0.00  0.00    -0.572 OA
ATOM     14  C3  ASG d 523      32.105  16.040  -5.161  0.00  0.00     0.094 C 
ATOM     15  C2  ASG d 523      33.429  16.091  -5.921  0.00  0.00     0.087 C 
ATOM     16  OSA ASG d 523      31.250  12.233  -3.375  0.00  0.00    -0.572 OA
ATOM     17  O1  ASG d 523      35.750  16.125  -5.625  0.00  0.00    -0.369 OA
ATOM     18  N   ASG d 523      33.400  17.158  -6.912  0.00  0.00    -0.349 N 
ATOM     19  C5  ASG d 523      33.340  15.089  -3.230  0.00  0.00     0.090 C 
ATOM     20  H   ASG d 523      34.505  17.215  -4.388  0.00  0.00     0.132 H 
ATOM     21  H   ASG d 523      32.871  18.996  -8.489  0.00  0.00     0.040 H 
ATOM     22  H   ASG d 523      31.954  17.959  -9.556  0.00  0.00     0.040 H 
ATOM     23  H   ASG d 523      33.659  18.215  -9.838  0.00  0.00     0.040 H 
ATOM     24  H   ASG d 523      33.541  13.012  -2.803  0.00  0.00     0.078 H 
ATOM     25  H   ASG d 523      32.549  13.879  -1.663  0.00  0.00     0.078 H 
ATOM     26  H   ASG d 523      35.365  14.161  -1.973  0.00  0.00     0.209 HD
ATOM     27  H   ASG d 523      31.275  14.824  -3.560  0.00  0.00     0.093 H 
ATOM     28  H   ASG d 523      31.933  16.972  -4.665  0.00  0.00     0.091 H 
ATOM     29  H   ASG d 523      33.590  15.176  -6.451  0.00  0.00     0.084 H 
ATOM     30  H   ASG d 523      35.744  15.267  -6.076  0.00  0.00     0.212 HD
ATOM     31  H   ASG d 523      33.515  18.086  -6.605  0.00  0.00     0.163 HD
ATOM     32  H   ASG d 523      33.248  15.989  -2.657  0.00  0.00     0.090 H 
ATOM     33  C6  GCD d 525      27.957  16.605  -3.272  0.00  0.00     0.233 C 
ATOM     34  C5  GCD d 525      28.440  16.485  -4.657  0.00  0.00     0.147 C 
ATOM     35  O6B GCD d 525      28.618  17.236  -2.419  0.00  0.00    -0.642 OA
ATOM     36  O2  GCD d 525      28.455  17.753  -7.688  0.00  0.00    -0.388 OA
ATOM     37  C3  GCD d 525      28.245  15.447  -6.955  0.00  0.00     0.084 C 
ATOM     38  O3  GCD d 525      28.842  14.175  -7.192  0.00  0.00    -0.389 OA
ATOM     39  O6A GCD d 525      26.869  16.066  -3.000  0.00  0.00    -0.642 OA
ATOM     40  C2  GCD d 525      29.198  16.569  -7.401  0.00  0.00     0.111 C 
ATOM     41  O5  GCD d 525      29.548  17.306  -5.129  0.00  0.00    -0.311 OA
ATOM     42  C4  GCD d 525      27.850  15.623  -5.499  0.00  0.00    -0.034 C 
ATOM     43  C1  GCD d 525      30.229  16.898  -6.316  0.00  0.00     0.165 C 
ATOM     44  H   GCD d 525      27.796  17.564  -8.375  0.00  0.00     0.210 HD
ATOM     45  H   GCD d 525      27.346  15.501  -7.534  0.00  0.00     0.093 H 
ATOM     46  H   GCD d 525      29.661  14.100  -6.677  0.00  0.00     0.210 HD
ATOM     47  H   GCD d 525      29.710  16.224  -8.275  0.00  0.00     0.095 H 
ATOM     48  H   GCD d 525      27.079  15.043  -5.134  0.00  0.00     0.085 H 
ATOM     49  H   GCD d 525      30.861  17.706  -6.623  0.00  0.00     0.134 H 
ENDROOT
TORSDOF 12
ENDMDL
MODEL 30
REMARK VINA RESULT:      -6.6      2.793      5.257
REMARK  0 active torsions:
REMARK  status: ('A' for Active; 'I' for Inactive)
REMARK       I    between atoms: C1_1  and  O1_26 
REMARK       I    between atoms: C6_2  and  C5_3 
REMARK       I    between atoms: C8_4  and  C7_20 
REMARK       I    between atoms: O2_6  and  C2_15 
REMARK       I    between atoms: O4_7  and  C4_17 
REMARK       I    between atoms: O4_7  and  S_16 
REMARK       I    between atoms: C3_8  and  O3_9 
REMARK       I    between atoms: C6_10  and  C5_28 
REMARK       I    between atoms: C6_10  and  O6_14 
REMARK       I    between atoms: O3_13  and  C3_23 
REMARK       I    between atoms: O3_13  and  C1_30 
REMARK       I    between atoms: C7_20  and  N_27 
REMARK       I    between atoms: C2_24  and  N_27 
ROOT
ATOM      1  C1  ASG d 523      32.272  13.902  -2.469  0.00  0.00     0.151 C 
ATOM      2  C8  ASG d 523      34.038  17.750  -4.836  0.00  0.00    -0.003 C 
ATOM      3  O4  ASG d 523      33.180  11.760  -4.931  0.00  0.00    -0.246 OA
ATOM      4  C6  ASG d 523      31.244  10.403  -3.217  0.00  0.00     0.043 C 
ATOM      5  O5  ASG d 523      32.272  12.458  -2.480  0.00  0.00    -0.349 OA
ATOM      6  O3  ASG d 523      32.558  14.018  -6.190  0.00  0.00    -0.348 OA
ATOM      7  O6  ASG d 523      30.791  10.118  -1.907  0.00  0.00    -0.398 OA
ATOM      8  S   ASG d 523      33.505  10.583  -6.026  0.00  0.00     0.252 S 
ATOM      9  C4  ASG d 523      31.833  12.243  -4.781  0.00  0.00     0.114 C 
ATOM     10  OSB ASG d 523      34.920   9.982  -5.801  0.00  0.00    -0.572 OA
ATOM     11  C7  ASG d 523      34.117  16.302  -4.468  0.00  0.00     0.214 C 
ATOM     12  O7  ASG d 523      35.164  15.746  -4.664  0.00  0.00    -0.274 OA
ATOM     13  OSC ASG d 523      33.397  11.163  -7.326  0.00  0.00    -0.572 OA
ATOM     14  C3  ASG d 523      31.944  13.756  -4.925  0.00  0.00     0.094 C 
ATOM     15  C2  ASG d 523      32.862  14.289  -3.827  0.00  0.00     0.087 C 
ATOM     16  OSA ASG d 523      32.488   9.591  -5.802  0.00  0.00    -0.572 OA
ATOM     17  O1  ASG d 523      33.235  14.232  -1.517  0.00  0.00    -0.369 OA
ATOM     18  N   ASG d 523      33.019  15.731  -3.957  0.00  0.00    -0.349 N 
ATOM     19  C5  ASG d 523      31.314  11.908  -3.394  0.00  0.00     0.090 C 
ATOM     20  H   ASG d 523      31.319  14.353  -2.282  0.00  0.00     0.132 H 
ATOM     21  H   ASG d 523      33.060  18.122  -4.612  0.00  0.00     0.040 H 
ATOM     22  H   ASG d 523      34.232  17.863  -5.882  0.00  0.00     0.040 H 
ATOM     23  H   ASG d 523      34.765  18.300  -4.276  0.00  0.00     0.040 H 
ATOM     24  H   ASG d 523      32.215   9.979  -3.361  0.00  0.00     0.078 H 
ATOM     25  H   ASG d 523      30.569   9.984  -3.933  0.00  0.00     0.078 H 
ATOM     26  H   ASG d 523      31.406  10.500  -1.261  0.00  0.00     0.209 HD
ATOM     27  H   ASG d 523      31.167  11.807  -5.494  0.00  0.00     0.093 H 
ATOM     28  H   ASG d 523      30.982  14.220  -4.854  0.00  0.00     0.091 H 
ATOM     29  H   ASG d 523      33.837  13.859  -3.914  0.00  0.00     0.084 H 
ATOM     30  H   ASG d 523      34.072  13.796  -1.740  0.00  0.00     0.212 HD
ATOM     31  H   ASG d 523      32.284  16.312  -3.655  0.00  0.00     0.163 HD
ATOM     32  H   ASG d 523      30.332  12.303  -3.232  0.00  0.00     0.090 H 
ATOM     33  C6  GCD d 525      29.040  12.962  -8.393  0.00  0.00     0.233 C 
ATOM     34  C5  GCD d 525      30.316  13.687  -8.276  0.00  0.00     0.147 C 
ATOM     35  O6B GCD d 525      28.196  13.004  -7.474  0.00  0.00    -0.642 OA
ATOM     36  O2  GCD d 525      31.957  16.479  -8.828  0.00  0.00    -0.388 OA
ATOM     37  C3  GCD d 525      32.641  14.170  -9.146  0.00  0.00     0.084 C 
ATOM     38  O3  GCD d 525      33.709  13.296  -8.789  0.00  0.00    -0.389 OA
ATOM     39  O6A GCD d 525      28.843  12.325  -9.444  0.00  0.00    -0.642 OA
ATOM     40  C2  GCD d 525      32.607  15.378  -8.194  0.00  0.00     0.111 C 
ATOM     41  O5  GCD d 525      30.514  14.671  -7.219  0.00  0.00    -0.311 OA
ATOM     42  C4  GCD d 525      31.302  13.453  -9.155  0.00  0.00    -0.034 C 
ATOM     43  C1  GCD d 525      31.852  15.054  -6.899  0.00  0.00     0.165 C 
ATOM     44  H   GCD d 525      32.423  16.699  -9.650  0.00  0.00     0.210 HD
ATOM     45  H   GCD d 525      32.819  14.517 -10.143  0.00  0.00     0.093 H 
ATOM     46  H   GCD d 525      33.569  12.967  -7.887  0.00  0.00     0.210 HD
ATOM     47  H   GCD d 525      33.620  15.623  -7.953  0.00  0.00     0.095 H 
ATOM     48  H   GCD d 525      31.140  12.740  -9.883  0.00  0.00     0.085 H 
ATOM     49  H   GCD d 525      31.801  15.913  -6.263  0.00  0.00     0.134 H 
ENDROOT
TORSDOF 12
ENDMDL
MODEL 31
REMARK VINA RESULT:      -6.5      2.397      5.570
REMARK  0 active torsions:
REMARK  status: ('A' for Active; 'I' for Inactive)
REMARK       I    between atoms: C1_1  and  O1_26 
REMARK       I    between atoms: C6_2  and  C5_3 
REMARK       I    between atoms: C8_4  and  C7_20 
REMARK       I    between atoms: O2_6  and  C2_15 
REMARK       I    between atoms: O4_7  and  C4_17 
REMARK       I    between atoms: O4_7  and  S_16 
REMARK       I    between atoms: C3_8  and  O3_9 
REMARK       I    between atoms: C6_10  and  C5_28 
REMARK       I    between atoms: C6_10  and  O6_14 
REMARK       I    between atoms: O3_13  and  C3_23 
REMARK       I    between atoms: O3_13  and  C1_30 
REMARK       I    between atoms: C7_20  and  N_27 
REMARK       I    between atoms: C2_24  and  N_27 
ROOT
ATOM      1  C1  ASG d 523      33.329  15.577  -3.460  0.00  0.00     0.151 C 
ATOM      2  C8  ASG d 523      32.078  17.291  -7.822  0.00  0.00    -0.003 C 
ATOM      3  O4  ASG d 523      33.242  12.359  -4.514  0.00  0.00    -0.246 OA
ATOM      4  C6  ASG d 523      33.211  12.358  -1.594  0.00  0.00     0.043 C 
ATOM      5  O5  ASG d 523      33.772  14.376  -2.792  0.00  0.00    -0.349 OA
ATOM      6  O3  ASG d 523      31.338  13.582  -5.910  0.00  0.00    -0.348 OA
ATOM      7  O6  ASG d 523      33.724  12.890  -0.386  0.00  0.00    -0.398 OA
ATOM      8  S   ASG d 523      33.215  10.749  -4.826  0.00  0.00     0.252 S 
ATOM      9  C4  ASG d 523      32.169  12.960  -3.769  0.00  0.00     0.114 C 
ATOM     10  OSB ASG d 523      34.595  10.252  -5.338  0.00  0.00    -0.572 OA
ATOM     11  C7  ASG d 523      32.802  16.290  -6.978  0.00  0.00     0.214 C 
ATOM     12  O7  ASG d 523      33.647  15.629  -7.520  0.00  0.00    -0.274 OA
ATOM     13  OSC ASG d 523      32.195  10.516  -5.798  0.00  0.00    -0.572 OA
ATOM     14  C3  ASG d 523      31.697  14.122  -4.635  0.00  0.00     0.094 C 
ATOM     15  C2  ASG d 523      32.860  15.092  -4.834  0.00  0.00     0.087 C 
ATOM     16  OSA ASG d 523      32.890  10.142  -3.563  0.00  0.00    -0.572 OA
ATOM     17  O1  ASG d 523      34.504  16.293  -3.681  0.00  0.00    -0.369 OA
ATOM     18  N   ASG d 523      32.453  16.198  -5.688  0.00  0.00    -0.349 N 
ATOM     19  C5  ASG d 523      32.692  13.499  -2.449  0.00  0.00     0.090 C 
ATOM     20  H   ASG d 523      32.584  16.138  -2.936  0.00  0.00     0.132 H 
ATOM     21  H   ASG d 523      31.358  17.809  -7.223  0.00  0.00     0.040 H 
ATOM     22  H   ASG d 523      31.578  16.787  -8.623  0.00  0.00     0.040 H 
ATOM     23  H   ASG d 523      32.778  17.992  -8.223  0.00  0.00     0.040 H 
ATOM     24  H   ASG d 523      33.988  11.841  -2.118  0.00  0.00     0.078 H 
ATOM     25  H   ASG d 523      32.418  11.673  -1.381  0.00  0.00     0.078 H 
ATOM     26  H   ASG d 523      34.443  13.509  -0.585  0.00  0.00     0.209 HD
ATOM     27  H   ASG d 523      31.389  12.262  -3.552  0.00  0.00     0.093 H 
ATOM     28  H   ASG d 523      30.872  14.629  -4.180  0.00  0.00     0.091 H 
ATOM     29  H   ASG d 523      33.675  14.601  -5.323  0.00  0.00     0.084 H 
ATOM     30  H   ASG d 523      35.139  15.736  -4.158  0.00  0.00     0.212 HD
ATOM     31  H   ASG d 523      31.897  16.911  -5.300  0.00  0.00     0.163 HD
ATOM     32  H   ASG d 523      31.927  14.002  -1.895  0.00  0.00     0.090 H 
ATOM     33  C6  GCD d 525      27.743  11.796  -4.420  0.00  0.00     0.233 C 
ATOM     34  C5  GCD d 525      28.543  12.348  -5.525  0.00  0.00     0.147 C 
ATOM     35  O6B GCD d 525      27.632  12.416  -3.340  0.00  0.00    -0.642 OA
ATOM     36  O2  GCD d 525      28.584  14.207  -8.234  0.00  0.00    -0.388 OA
ATOM     37  C3  GCD d 525      29.630  12.060  -7.790  0.00  0.00     0.084 C 
ATOM     38  O3  GCD d 525      30.912  11.441  -7.868  0.00  0.00    -0.389 OA
ATOM     39  O6A GCD d 525      27.181  10.703  -4.615  0.00  0.00    -0.642 OA
ATOM     40  C2  GCD d 525      29.784  13.591  -7.767  0.00  0.00     0.111 C 
ATOM     41  O5  GCD d 525      29.002  13.732  -5.487  0.00  0.00    -0.311 OA
ATOM     42  C4  GCD d 525      28.844  11.580  -6.582  0.00  0.00    -0.034 C 
ATOM     43  C1  GCD d 525      30.073  14.108  -6.353  0.00  0.00     0.165 C 
ATOM     44  H   GCD d 525      28.386  13.892  -9.129  0.00  0.00     0.210 HD
ATOM     45  H   GCD d 525      29.075  11.778  -8.660  0.00  0.00     0.093 H 
ATOM     46  H   GCD d 525      31.436  11.682  -7.088  0.00  0.00     0.210 HD
ATOM     47  H   GCD d 525      30.608  13.838  -8.403  0.00  0.00     0.095 H 
ATOM     48  H   GCD d 525      28.520  10.601  -6.575  0.00  0.00     0.085 H 
ATOM     49  H   GCD d 525      30.139  15.176  -6.344  0.00  0.00     0.134 H 
ENDROOT
TORSDOF 12
ENDMDL
MODEL 32
REMARK VINA RESULT:      -6.5      2.720      5.078
REMARK  0 active torsions:
REMARK  status: ('A' for Active; 'I' for Inactive)
REMARK       I    between atoms: C1_1  and  O1_26 
REMARK       I    between atoms: C6_2  and  C5_3 
REMARK       I    between atoms: C8_4  and  C7_20 
REMARK       I    between atoms: O2_6  and  C2_15 
REMARK       I    between atoms: O4_7  and  C4_17 
REMARK       I    between atoms: O4_7  and  S_16 
REMARK       I    between atoms: C3_8  and  O3_9 
REMARK       I    between atoms: C6_10  and  C5_28 
REMARK       I    between atoms: C6_10  and  O6_14 
REMARK       I    between atoms: O3_13  and  C3_23 
REMARK       I    between atoms: O3_13  and  C1_30 
REMARK       I    between atoms: C7_20  and  N_27 
REMARK       I    between atoms: C2_24  and  N_27 
ROOT
ATOM      1  C1  ASG d 523      31.066  11.611  -3.783  0.00  0.00     0.151 C 
ATOM      2  C8  ASG d 523      34.735  13.487  -1.224  0.00  0.00    -0.003 C 
ATOM      3  O4  ASG d 523      32.413  12.575  -6.737  0.00  0.00    -0.246 OA
ATOM      4  C6  ASG d 523      29.604  11.920  -7.192  0.00  0.00     0.043 C 
ATOM      5  O5  ASG d 523      30.673  11.269  -5.130  0.00  0.00    -0.349 OA
ATOM      6  O3  ASG d 523      33.123  14.473  -5.016  0.00  0.00    -0.348 OA
ATOM      7  O6  ASG d 523      28.519  11.045  -6.948  0.00  0.00    -0.398 OA
ATOM      8  S   ASG d 523      32.885  12.991  -8.252  0.00  0.00     0.252 S 
ATOM      9  C4  ASG d 523      31.353  13.304  -6.094  0.00  0.00     0.114 C 
ATOM     10  OSB ASG d 523      33.789  11.896  -8.881  0.00  0.00    -0.572 OA
ATOM     11  C7  ASG d 523      34.225  12.796  -2.450  0.00  0.00     0.214 C 
ATOM     12  O7  ASG d 523      35.038  12.250  -3.146  0.00  0.00    -0.274 OA
ATOM     13  OSC ASG d 523      33.580  14.236  -8.160  0.00  0.00    -0.572 OA
ATOM     14  C3  ASG d 523      31.933  13.727  -4.749  0.00  0.00     0.094 C 
ATOM     15  C2  ASG d 523      32.317  12.475  -3.963  0.00  0.00     0.087 C 
ATOM     16  OSA ASG d 523      31.656  13.124  -8.989  0.00  0.00    -0.572 OA
ATOM     17  O1  ASG d 523      31.503  10.403  -3.242  0.00  0.00    -0.369 OA
ATOM     18  N   ASG d 523      32.908  12.845  -2.685  0.00  0.00    -0.349 N 
ATOM     19  C5  ASG d 523      30.162  12.391  -5.862  0.00  0.00     0.090 C 
ATOM     20  H   ASG d 523      30.308  12.088  -3.198  0.00  0.00     0.132 H 
ATOM     21  H   ASG d 523      33.916  13.929  -0.697  0.00  0.00     0.040 H 
ATOM     22  H   ASG d 523      35.430  14.249  -1.507  0.00  0.00     0.040 H 
ATOM     23  H   ASG d 523      35.224  12.776  -0.592  0.00  0.00     0.040 H 
ATOM     24  H   ASG d 523      30.365  11.405  -7.740  0.00  0.00     0.078 H 
ATOM     25  H   ASG d 523      29.270  12.761  -7.764  0.00  0.00     0.078 H 
ATOM     26  H   ASG d 523      28.827  10.285  -6.430  0.00  0.00     0.209 HD
ATOM     27  H   ASG d 523      31.020  14.133  -6.682  0.00  0.00     0.093 H 
ATOM     28  H   ASG d 523      31.225  14.306  -4.193  0.00  0.00     0.091 H 
ATOM     29  H   ASG d 523      33.052  11.910  -4.497  0.00  0.00     0.084 H 
ATOM     30  H   ASG d 523      32.186  10.020  -3.814  0.00  0.00     0.212 HD
ATOM     31  H   ASG d 523      32.311  13.143  -1.961  0.00  0.00     0.163 HD
ATOM     32  H   ASG d 523      29.376  12.890  -5.335  0.00  0.00     0.090 H 
ATOM     33  C6  GCD d 525      30.960  17.899  -6.405  0.00  0.00     0.233 C 
ATOM     34  C5  GCD d 525      32.166  17.288  -5.823  0.00  0.00     0.147 C 
ATOM     35  O6B GCD d 525      29.827  17.629  -5.953  0.00  0.00    -0.642 OA
ATOM     36  O2  GCD d 525      34.569  17.516  -3.594  0.00  0.00    -0.388 OA
ATOM     37  C3  GCD d 525      34.653  16.840  -5.925  0.00  0.00     0.084 C 
ATOM     38  O3  GCD d 525      35.130  15.760  -6.724  0.00  0.00    -0.389 OA
ATOM     39  O6A GCD d 525      31.124  18.695  -7.347  0.00  0.00    -0.642 OA
ATOM     40  C2  GCD d 525      34.501  16.386  -4.463  0.00  0.00     0.111 C 
ATOM     41  O5  GCD d 525      32.095  16.569  -4.557  0.00  0.00    -0.311 OA
ATOM     42  C4  GCD d 525      33.344  17.400  -6.454  0.00  0.00    -0.034 C 
ATOM     43  C1  GCD d 525      33.162  15.678  -4.228  0.00  0.00     0.165 C 
ATOM     44  H   GCD d 525      35.412  17.978  -3.728  0.00  0.00     0.210 HD
ATOM     45  H   GCD d 525      35.376  17.627  -5.973  0.00  0.00     0.093 H 
ATOM     46  H   GCD d 525      34.490  15.031  -6.698  0.00  0.00     0.210 HD
ATOM     47  H   GCD d 525      35.297  15.702  -4.256  0.00  0.00     0.095 H 
ATOM     48  H   GCD d 525      33.363  17.900  -7.357  0.00  0.00     0.085 H 
ATOM     49  H   GCD d 525      33.051  15.403  -3.200  0.00  0.00     0.134 H 
ENDROOT
TORSDOF 12
ENDMDL
MODEL 33
REMARK VINA RESULT:      -6.5      2.493      4.959
REMARK  0 active torsions:
REMARK  status: ('A' for Active; 'I' for Inactive)
REMARK       I    between atoms: C1_1  and  O1_26 
REMARK       I    between atoms: C6_2  and  C5_3 
REMARK       I    between atoms: C8_4  and  C7_20 
REMARK       I    between atoms: O2_6  and  C2_15 
REMARK       I    between atoms: O4_7  and  C4_17 
REMARK       I    between atoms: O4_7  and  S_16 
REMARK       I    between atoms: C3_8  and  O3_9 
REMARK       I    between atoms: C6_10  and  C5_28 
REMARK       I    between atoms: C6_10  and  O6_14 
REMARK       I    between atoms: O3_13  and  C3_23 
REMARK       I    between atoms: O3_13  and  C1_30 
REMARK       I    between atoms: C7_20  and  N_27 
REMARK       I    between atoms: C2_24  and  N_27 
ROOT
ATOM      1  C1  ASG d 523      29.563  13.332  -7.185  0.00  0.00     0.151 C 
ATOM      2  C8  ASG d 523      30.761  16.661  -3.866  0.00  0.00    -0.003 C 
ATOM      3  O4  ASG d 523      29.318  10.870  -4.871  0.00  0.00    -0.246 OA
ATOM      4  C6  ASG d 523      29.482   9.624  -7.507  0.00  0.00     0.043 C 
ATOM      5  O5  ASG d 523      29.048  11.990  -7.318  0.00  0.00    -0.349 OA
ATOM      6  O3  ASG d 523      31.257  12.454  -3.975  0.00  0.00    -0.348 OA
ATOM      7  O6  ASG d 523      29.074   9.620  -8.862  0.00  0.00    -0.398 OA
ATOM      8  S   ASG d 523      29.189   9.548  -3.909  0.00  0.00     0.252 S 
ATOM      9  C4  ASG d 523      30.473  11.030  -5.713  0.00  0.00     0.114 C 
ATOM     10  OSB ASG d 523      27.749   9.400  -3.346  0.00  0.00    -0.572 OA
ATOM     11  C7  ASG d 523      29.990  15.442  -4.264  0.00  0.00     0.214 C 
ATOM     12  O7  ASG d 523      29.067  15.127  -3.563  0.00  0.00    -0.274 OA
ATOM     13  OSC ASG d 523      30.139   9.690  -2.852  0.00  0.00    -0.572 OA
ATOM     14  C3  ASG d 523      31.006  12.420  -5.382  0.00  0.00     0.094 C 
ATOM     15  C2  ASG d 523      29.925  13.450  -5.702  0.00  0.00     0.087 C 
ATOM     16  OSA ASG d 523      29.516   8.442  -4.770  0.00  0.00    -0.572 OA
ATOM     17  O1  ASG d 523      28.447  14.144  -7.379  0.00  0.00    -0.369 OA
ATOM     18  N   ASG d 523      30.388  14.789  -5.364  0.00  0.00    -0.349 N 
ATOM     19  C5  ASG d 523      30.061  10.986  -7.174  0.00  0.00     0.090 C 
ATOM     20  H   ASG d 523      30.379  13.570  -7.836  0.00  0.00     0.132 H 
ATOM     21  H   ASG d 523      31.550  16.829  -4.569  0.00  0.00     0.040 H 
ATOM     22  H   ASG d 523      31.177  16.517  -2.891  0.00  0.00     0.040 H 
ATOM     23  H   ASG d 523      30.107  17.507  -3.854  0.00  0.00     0.040 H 
ATOM     24  H   ASG d 523      28.640   9.427  -6.878  0.00  0.00     0.078 H 
ATOM     25  H   ASG d 523      30.221   8.867  -7.348  0.00  0.00     0.078 H 
ATOM     26  H   ASG d 523      28.404  10.308  -9.000  0.00  0.00     0.209 HD
ATOM     27  H   ASG d 523      31.198  10.260  -5.554  0.00  0.00     0.093 H 
ATOM     28  H   ASG d 523      31.892  12.634  -5.942  0.00  0.00     0.091 H 
ATOM     29  H   ASG d 523      29.048  13.265  -5.118  0.00  0.00     0.084 H 
ATOM     30  H   ASG d 523      27.745  13.881  -6.764  0.00  0.00     0.212 HD
ATOM     31  H   ASG d 523      31.023  15.233  -5.971  0.00  0.00     0.163 HD
ATOM     32  H   ASG d 523      30.892  11.159  -7.826  0.00  0.00     0.090 H 
ATOM     33  C6  GCD d 525      34.745   9.989  -4.286  0.00  0.00     0.233 C 
ATOM     34  C5  GCD d 525      33.947  11.007  -3.583  0.00  0.00     0.147 C 
ATOM     35  O6B GCD d 525      34.959  10.082  -5.514  0.00  0.00    -0.642 OA
ATOM     36  O2  GCD d 525      33.946  13.841  -1.921  0.00  0.00    -0.388 OA
ATOM     37  C3  GCD d 525      32.736  11.777  -1.500  0.00  0.00     0.084 C 
ATOM     38  O3  GCD d 525      31.403  11.329  -1.270  0.00  0.00    -0.389 OA
ATOM     39  O6A GCD d 525      35.199   9.052  -3.605  0.00  0.00    -0.642 OA
ATOM     40  C2  GCD d 525      32.719  13.158  -2.178  0.00  0.00     0.111 C 
ATOM     41  O5  GCD d 525      33.614  12.268  -4.235  0.00  0.00    -0.311 OA
ATOM     42  C4  GCD d 525      33.532  10.782  -2.328  0.00  0.00    -0.034 C 
ATOM     43  C1  GCD d 525      32.542  13.041  -3.696  0.00  0.00     0.165 C 
ATOM     44  H   GCD d 525      34.075  13.926  -0.963  0.00  0.00     0.210 HD
ATOM     45  H   GCD d 525      33.224  11.859  -0.552  0.00  0.00     0.093 H 
ATOM     46  H   GCD d 525      30.938  11.246  -2.118  0.00  0.00     0.210 HD
ATOM     47  H   GCD d 525      31.892  13.702  -1.772  0.00  0.00     0.095 H 
ATOM     48  H   GCD d 525      33.768   9.875  -1.897  0.00  0.00     0.085 H 
ATOM     49  H   GCD d 525      32.571  14.005  -4.159  0.00  0.00     0.134 H 
ENDROOT
TORSDOF 12
ENDMDL
MODEL 34
REMARK VINA RESULT:      -6.5      2.786      5.878
REMARK  0 active torsions:
REMARK  status: ('A' for Active; 'I' for Inactive)
REMARK       I    between atoms: C1_1  and  O1_26 
REMARK       I    between atoms: C6_2  and  C5_3 
REMARK       I    between atoms: C8_4  and  C7_20 
REMARK       I    between atoms: O2_6  and  C2_15 
REMARK       I    between atoms: O4_7  and  C4_17 
REMARK       I    between atoms: O4_7  and  S_16 
REMARK       I    between atoms: C3_8  and  O3_9 
REMARK       I    between atoms: C6_10  and  C5_28 
REMARK       I    between atoms: C6_10  and  O6_14 
REMARK       I    between atoms: O3_13  and  C3_23 
REMARK       I    between atoms: O3_13  and  C1_30 
REMARK       I    between atoms: C7_20  and  N_27 
REMARK       I    between atoms: C2_24  and  N_27 
ROOT
ATOM      1  C1  ASG d 523      34.305  16.543  -4.715  0.00  0.00     0.151 C 
ATOM      2  C8  ASG d 523      32.951  17.432  -9.287  0.00  0.00    -0.003 C 
ATOM      3  O4  ASG d 523      33.666  13.228  -4.993  0.00  0.00    -0.246 OA
ATOM      4  C6  ASG d 523      33.882  13.875  -2.154  0.00  0.00     0.043 C 
ATOM      5  O5  ASG d 523      34.625  15.464  -3.811  0.00  0.00    -0.349 OA
ATOM      6  O3  ASG d 523      31.847  14.402  -6.538  0.00  0.00    -0.348 OA
ATOM      7  O6  ASG d 523      34.566  14.570  -1.128  0.00  0.00    -0.398 OA
ATOM      8  S   ASG d 523      33.380  11.614  -4.924  0.00  0.00     0.252 S 
ATOM      9  C4  ASG d 523      32.757  14.142  -4.354  0.00  0.00     0.114 C 
ATOM     10  OSB ASG d 523      34.625  10.803  -5.375  0.00  0.00    -0.572 OA
ATOM     11  C7  ASG d 523      33.592  16.539  -8.272  0.00  0.00     0.214 C 
ATOM     12  O7  ASG d 523      34.283  15.649  -8.688  0.00  0.00    -0.274 OA
ATOM     13  OSC ASG d 523      32.258  11.340  -5.765  0.00  0.00    -0.572 OA
ATOM     14  C3  ASG d 523      32.387  15.145  -5.441  0.00  0.00     0.094 C 
ATOM     15  C2  ASG d 523      33.657  15.848  -5.915  0.00  0.00     0.087 C 
ATOM     16  OSA ASG d 523      33.079  11.360  -3.541  0.00  0.00    -0.572 OA
ATOM     17  O1  ASG d 523      35.549  16.996  -5.153  0.00  0.00    -0.369 OA
ATOM     18  N   ASG d 523      33.343  16.790  -6.980  0.00  0.00    -0.349 N 
ATOM     19  C5  ASG d 523      33.462  14.867  -3.222  0.00  0.00     0.090 C 
ATOM     20  H   ASG d 523      33.695  17.317  -4.298  0.00  0.00     0.132 H 
ATOM     21  H   ASG d 523      32.367  18.177  -8.788  0.00  0.00     0.040 H 
ATOM     22  H   ASG d 523      32.318  16.851  -9.925  0.00  0.00     0.040 H 
ATOM     23  H   ASG d 523      33.709  17.907  -9.873  0.00  0.00     0.040 H 
ATOM     24  H   ASG d 523      34.529  13.138  -2.582  0.00  0.00     0.078 H 
ATOM     25  H   ASG d 523      33.018  13.389  -1.750  0.00  0.00     0.078 H 
ATOM     26  H   ASG d 523      35.347  15.008  -1.500  0.00  0.00     0.209 HD
ATOM     27  H   ASG d 523      31.905  13.643  -3.944  0.00  0.00     0.093 H 
ATOM     28  H   ASG d 523      31.685  15.865  -5.075  0.00  0.00     0.091 H 
ATOM     29  H   ASG d 523      34.348  15.139  -6.318  0.00  0.00     0.084 H 
ATOM     30  H   ASG d 523      36.054  16.253  -5.519  0.00  0.00     0.212 HD
ATOM     31  H   ASG d 523      32.930  17.651  -6.740  0.00  0.00     0.163 HD
ATOM     32  H   ASG d 523      32.827  15.596  -2.761  0.00  0.00     0.090 H 
ATOM     33  C6  GCD d 525      28.170  13.586  -4.500  0.00  0.00     0.233 C 
ATOM     34  C5  GCD d 525      28.946  13.747  -5.741  0.00  0.00     0.147 C 
ATOM     35  O6B GCD d 525      28.242  14.438  -3.588  0.00  0.00    -0.642 OA
ATOM     36  O2  GCD d 525      29.026  14.933  -8.804  0.00  0.00    -0.388 OA
ATOM     37  C3  GCD d 525      29.785  12.797  -7.930  0.00  0.00     0.084 C 
ATOM     38  O3  GCD d 525      30.953  11.980  -7.926  0.00  0.00    -0.389 OA
ATOM     39  O6A GCD d 525      27.442  12.581  -4.411  0.00  0.00    -0.642 OA
ATOM     40  C2  GCD d 525      30.160  14.250  -8.268  0.00  0.00     0.111 C 
ATOM     41  O5  GCD d 525      29.601  15.013  -6.046  0.00  0.00    -0.311 OA
ATOM     42  C4  GCD d 525      29.042  12.727  -6.606  0.00  0.00    -0.034 C 
ATOM     43  C1  GCD d 525      30.638  15.013  -7.027  0.00  0.00     0.165 C 
ATOM     44  H   GCD d 525      28.709  14.464  -9.592  0.00  0.00     0.210 HD
ATOM     45  H   GCD d 525      29.123  12.423  -8.683  0.00  0.00     0.093 H 
ATOM     46  H   GCD d 525      31.570  12.299  -7.249  0.00  0.00     0.210 HD
ATOM     47  H   GCD d 525      30.954  14.217  -8.983  0.00  0.00     0.095 H 
ATOM     48  H   GCD d 525      28.582  11.837  -6.358  0.00  0.00     0.085 H 
ATOM     49  H   GCD d 525      30.858  16.032  -7.268  0.00  0.00     0.134 H 
ENDROOT
TORSDOF 12
ENDMDL
MODEL 35
REMARK VINA RESULT:      -6.5      2.453      5.750
REMARK  0 active torsions:
REMARK  status: ('A' for Active; 'I' for Inactive)
REMARK       I    between atoms: C1_1  and  O1_26 
REMARK       I    between atoms: C6_2  and  C5_3 
REMARK       I    between atoms: C8_4  and  C7_20 
REMARK       I    between atoms: O2_6  and  C2_15 
REMARK       I    between atoms: O4_7  and  C4_17 
REMARK       I    between atoms: O4_7  and  S_16 
REMARK       I    between atoms: C3_8  and  O3_9 
REMARK       I    between atoms: C6_10  and  C5_28 
REMARK       I    between atoms: C6_10  and  O6_14 
REMARK       I    between atoms: O3_13  and  C3_23 
REMARK       I    between atoms: O3_13  and  C1_30 
REMARK       I    between atoms: C7_20  and  N_27 
REMARK       I    between atoms: C2_24  and  N_27 
ROOT
ATOM      1  C1  ASG d 523      33.888  15.398  -7.569  0.00  0.00     0.151 C 
ATOM      2  C8  ASG d 523      32.336  11.660 -10.243  0.00  0.00    -0.003 C 
ATOM      3  O4  ASG d 523      33.271  13.786  -4.655  0.00  0.00    -0.246 OA
ATOM      4  C6  ASG d 523      33.598  16.628  -4.068  0.00  0.00     0.043 C 
ATOM      5  O5  ASG d 523      34.256  15.760  -6.221  0.00  0.00    -0.349 OA
ATOM      6  O3  ASG d 523      31.379  12.933  -6.316  0.00  0.00    -0.348 OA
ATOM      7  O6  ASG d 523      34.317  17.826  -4.291  0.00  0.00    -0.398 OA
ATOM      8  S   ASG d 523      33.004  13.186  -3.151  0.00  0.00     0.252 S 
ATOM      9  C4  ASG d 523      32.381  14.778  -5.196  0.00  0.00     0.114 C 
ATOM     10  OSB ASG d 523      34.238  12.397  -2.634  0.00  0.00    -0.572 OA
ATOM     11  C7  ASG d 523      33.028  12.189  -9.026  0.00  0.00     0.214 C 
ATOM     12  O7  ASG d 523      33.710  11.417  -8.408  0.00  0.00    -0.274 OA
ATOM     13  OSC ASG d 523      31.852  12.345  -3.222  0.00  0.00    -0.572 OA
ATOM     14  C3  ASG d 523      31.955  14.221  -6.550  0.00  0.00     0.094 C 
ATOM     15  C2  ASG d 523      33.198  14.040  -7.420  0.00  0.00     0.087 C 
ATOM     16  OSA ASG d 523      32.764  14.348  -2.337  0.00  0.00    -0.572 OA
ATOM     17  O1  ASG d 523      35.108  15.147  -8.196  0.00  0.00    -0.369 OA
ATOM     18  N   ASG d 523      32.831  13.475  -8.711  0.00  0.00    -0.349 N 
ATOM     19  C5  ASG d 523      33.125  16.085  -5.403  0.00  0.00     0.090 C 
ATOM     20  H   ASG d 523      33.289  16.120  -8.083  0.00  0.00     0.132 H 
ATOM     21  H   ASG d 523      31.766  12.444 -10.698  0.00  0.00     0.040 H 
ATOM     22  H   ASG d 523      31.683  10.860  -9.963  0.00  0.00     0.040 H 
ATOM     23  H   ASG d 523      33.065  11.300 -10.938  0.00  0.00     0.040 H 
ATOM     24  H   ASG d 523      34.234  15.910  -3.593  0.00  0.00     0.078 H 
ATOM     25  H   ASG d 523      32.757  16.822  -3.435  0.00  0.00     0.078 H 
ATOM     26  H   ASG d 523      35.078  17.645  -4.864  0.00  0.00     0.209 HD
ATOM     27  H   ASG d 523      31.552  14.971  -4.549  0.00  0.00     0.093 H 
ATOM     28  H   ASG d 523      31.263  14.877  -7.034  0.00  0.00     0.091 H 
ATOM     29  H   ASG d 523      33.879  13.356  -6.960  0.00  0.00     0.084 H 
ATOM     30  H   ASG d 523      35.605  14.488  -7.686  0.00  0.00     0.212 HD
ATOM     31  H   ASG d 523      32.419  14.066  -9.382  0.00  0.00     0.163 HD
ATOM     32  H   ASG d 523      32.502  16.828  -5.857  0.00  0.00     0.090 H 
ATOM     33  C6  GCD d 525      27.798  14.568  -4.630  0.00  0.00     0.233 C 
ATOM     34  C5  GCD d 525      28.519  13.481  -5.312  0.00  0.00     0.147 C 
ATOM     35  O6B GCD d 525      27.899  15.749  -5.027  0.00  0.00    -0.642 OA
ATOM     36  O2  GCD d 525      28.461  11.190  -7.666  0.00  0.00    -0.388 OA
ATOM     37  C3  GCD d 525      29.276  11.069  -5.381  0.00  0.00     0.084 C 
ATOM     38  O3  GCD d 525      30.451  10.693  -4.668  0.00  0.00    -0.389 OA
ATOM     39  O6A GCD d 525      27.084  14.255  -3.660  0.00  0.00    -0.642 OA
ATOM     40  C2  GCD d 525      29.622  11.355  -6.853  0.00  0.00     0.111 C 
ATOM     41  O5  GCD d 525      29.149  13.710  -6.607  0.00  0.00    -0.311 OA
ATOM     42  C4  GCD d 525      28.590  12.267  -4.748  0.00  0.00    -0.034 C 
ATOM     43  C1  GCD d 525      30.144  12.784  -7.043  0.00  0.00     0.165 C 
ATOM     44  H   GCD d 525      28.116  10.290  -7.559  0.00  0.00     0.210 HD
ATOM     45  H   GCD d 525      28.588  10.252  -5.337  0.00  0.00     0.093 H 
ATOM     46  H   GCD d 525      31.093  11.420  -4.693  0.00  0.00     0.210 HD
ATOM     47  H   GCD d 525      30.386  10.664  -7.141  0.00  0.00     0.095 H 
ATOM     48  H   GCD d 525      28.149  12.138  -3.824  0.00  0.00     0.085 H 
ATOM     49  H   GCD d 525      30.344  12.982  -8.076  0.00  0.00     0.134 H 
ENDROOT
TORSDOF 12
ENDMDL
MODEL 36
REMARK VINA RESULT:      -6.5      2.675      5.119
REMARK  0 active torsions:
REMARK  status: ('A' for Active; 'I' for Inactive)
REMARK       I    between atoms: C1_1  and  O1_26 
REMARK       I    between atoms: C6_2  and  C5_3 
REMARK       I    between atoms: C8_4  and  C7_20 
REMARK       I    between atoms: O2_6  and  C2_15 
REMARK       I    between atoms: O4_7  and  C4_17 
REMARK       I    between atoms: O4_7  and  S_16 
REMARK       I    between atoms: C3_8  and  O3_9 
REMARK       I    between atoms: C6_10  and  C5_28 
REMARK       I    between atoms: C6_10  and  O6_14 
REMARK       I    between atoms: O3_13  and  C3_23 
REMARK       I    between atoms: O3_13  and  C1_30 
REMARK       I    between atoms: C7_20  and  N_27 
REMARK       I    between atoms: C2_24  and  N_27 
ROOT
ATOM      1  C1  ASG d 523      32.762  12.703  -1.800  0.00  0.00     0.151 C 
ATOM      2  C8  ASG d 523      33.421  16.886  -4.167  0.00  0.00    -0.003 C 
ATOM      3  O4  ASG d 523      33.445  10.846  -4.549  0.00  0.00    -0.246 OA
ATOM      4  C6  ASG d 523      32.124   9.123  -2.596  0.00  0.00     0.043 C 
ATOM      5  O5  ASG d 523      32.970  11.280  -1.922  0.00  0.00    -0.349 OA
ATOM      6  O3  ASG d 523      32.253  13.032  -5.485  0.00  0.00    -0.348 OA
ATOM      7  O6  ASG d 523      31.998   8.711  -1.248  0.00  0.00    -0.398 OA
ATOM      8  S   ASG d 523      33.705   9.786  -5.774  0.00  0.00     0.252 S 
ATOM      9  C4  ASG d 523      32.102  11.102  -4.100  0.00  0.00     0.114 C 
ATOM     10  OSB ASG d 523      35.208   9.407  -5.879  0.00  0.00    -0.572 OA
ATOM     11  C7  ASG d 523      33.785  15.453  -3.934  0.00  0.00     0.214 C 
ATOM     12  O7  ASG d 523      34.838  15.080  -4.375  0.00  0.00    -0.274 OA
ATOM     13  OSC ASG d 523      33.247  10.400  -6.979  0.00  0.00    -0.572 OA
ATOM     14  C3  ASG d 523      31.959  12.619  -4.148  0.00  0.00     0.094 C 
ATOM     15  C2  ASG d 523      32.996  13.240  -3.214  0.00  0.00     0.087 C 
ATOM     16  OSA ASG d 523      32.912   8.636  -5.431  0.00  0.00    -0.572 OA
ATOM     17  O1  ASG d 523      33.843  13.139  -1.035  0.00  0.00    -0.369 OA
ATOM     18  N   ASG d 523      32.911  14.693  -3.262  0.00  0.00    -0.349 N 
ATOM     19  C5  ASG d 523      31.935  10.627  -2.668  0.00  0.00     0.090 C 
ATOM     20  H   ASG d 523      31.814  12.989  -1.395  0.00  0.00     0.132 H 
ATOM     21  H   ASG d 523      32.466  17.088  -3.727  0.00  0.00     0.040 H 
ATOM     22  H   ASG d 523      33.376  17.076  -5.219  0.00  0.00     0.040 H 
ATOM     23  H   ASG d 523      34.159  17.518  -3.721  0.00  0.00     0.040 H 
ATOM     24  H   ASG d 523      33.096   8.865  -2.962  0.00  0.00     0.078 H 
ATOM     25  H   ASG d 523      31.385   8.635  -3.196  0.00  0.00     0.078 H 
ATOM     26  H   ASG d 523      32.671   9.156  -0.710  0.00  0.00     0.209 HD
ATOM     27  H   ASG d 523      31.374  10.598  -4.700  0.00  0.00     0.093 H 
ATOM     28  H   ASG d 523      30.975  12.920  -3.853  0.00  0.00     0.091 H 
ATOM     29  H   ASG d 523      33.984  12.974  -3.525  0.00  0.00     0.084 H 
ATOM     30  H   ASG d 523      34.670  12.851  -1.451  0.00  0.00     0.212 HD
ATOM     31  H   ASG d 523      32.177  15.137  -2.778  0.00  0.00     0.163 HD
ATOM     32  H   ASG d 523      30.961  10.854  -2.286  0.00  0.00     0.090 H 
ATOM     33  C6  GCD d 525      28.549  11.533  -7.026  0.00  0.00     0.233 C 
ATOM     34  C5  GCD d 525      29.702  12.445  -7.107  0.00  0.00     0.147 C 
ATOM     35  O6B GCD d 525      27.916  11.399  -5.957  0.00  0.00    -0.642 OA
ATOM     36  O2  GCD d 525      30.768  15.484  -7.756  0.00  0.00    -0.388 OA
ATOM     37  C3  GCD d 525      31.701  13.329  -8.379  0.00  0.00     0.084 C 
ATOM     38  O3  GCD d 525      32.935  12.619  -8.307  0.00  0.00    -0.389 OA
ATOM     39  O6A GCD d 525      28.234  10.920  -8.062  0.00  0.00    -0.642 OA
ATOM     40  C2  GCD d 525      31.688  14.471  -7.349  0.00  0.00     0.111 C 
ATOM     41  O5  GCD d 525      29.968  13.398  -6.038  0.00  0.00    -0.311 OA
ATOM     42  C4  GCD d 525      30.508  12.409  -8.178  0.00  0.00    -0.034 C 
ATOM     43  C1  GCD d 525      31.272  13.974  -5.960  0.00  0.00     0.165 C 
ATOM     44  H   GCD d 525      31.017  15.811  -8.635  0.00  0.00     0.210 HD
ATOM     45  H   GCD d 525      31.617  13.744  -9.362  0.00  0.00     0.093 H 
ATOM     46  H   GCD d 525      33.035  12.232  -7.423  0.00  0.00     0.210 HD
ATOM     47  H   GCD d 525      32.682  14.863  -7.295  0.00  0.00     0.095 H 
ATOM     48  H   GCD d 525      30.306  11.714  -8.912  0.00  0.00     0.085 H 
ATOM     49  H   GCD d 525      31.230  14.784  -5.262  0.00  0.00     0.134 H 
ENDROOT
TORSDOF 12
ENDMDL
MODEL 37
REMARK VINA RESULT:      -6.4      2.743      6.651
REMARK  0 active torsions:
REMARK  status: ('A' for Active; 'I' for Inactive)
REMARK       I    between atoms: C1_1  and  O1_26 
REMARK       I    between atoms: C6_2  and  C5_3 
REMARK       I    between atoms: C8_4  and  C7_20 
REMARK       I    between atoms: O2_6  and  C2_15 
REMARK       I    between atoms: O4_7  and  C4_17 
REMARK       I    between atoms: O4_7  and  S_16 
REMARK       I    between atoms: C3_8  and  O3_9 
REMARK       I    between atoms: C6_10  and  C5_28 
REMARK       I    between atoms: C6_10  and  O6_14 
REMARK       I    between atoms: O3_13  and  C3_23 
REMARK       I    between atoms: O3_13  and  C1_30 
REMARK       I    between atoms: C7_20  and  N_27 
REMARK       I    between atoms: C2_24  and  N_27 
ROOT
ATOM      1  C1  ASG d 523      31.487  17.119  -8.103  0.00  0.00     0.151 C 
ATOM      2  C8  ASG d 523      36.009  17.122  -6.346  0.00  0.00    -0.003 C 
ATOM      3  O4  ASG d 523      30.127  16.501  -5.064  0.00  0.00    -0.246 OA
ATOM      4  C6  ASG d 523      28.108  15.930  -7.094  0.00  0.00     0.043 C 
ATOM      5  O5  ASG d 523      30.104  17.146  -7.690  0.00  0.00    -0.349 OA
ATOM      6  O3  ASG d 523      32.456  15.218  -5.039  0.00  0.00    -0.348 OA
ATOM      7  O6  ASG d 523      27.470  16.316  -8.296  0.00  0.00    -0.398 OA
ATOM      8  S   ASG d 523      29.293  16.168  -3.691  0.00  0.00     0.252 S 
ATOM      9  C4  ASG d 523      30.318  15.473  -6.051  0.00  0.00     0.114 C 
ATOM     10  OSB ASG d 523      28.919  17.469  -2.930  0.00  0.00    -0.572 OA
ATOM     11  C7  ASG d 523      34.553  17.430  -6.188  0.00  0.00     0.214 C 
ATOM     12  O7  ASG d 523      34.249  18.188  -5.307  0.00  0.00    -0.274 OA
ATOM     13  OSC ASG d 523      30.112  15.320  -2.885  0.00  0.00    -0.572 OA
ATOM     14  C3  ASG d 523      31.821  15.447  -6.300  0.00  0.00     0.094 C 
ATOM     15  C2  ASG d 523      32.259  16.816  -6.816  0.00  0.00     0.087 C 
ATOM     16  OSA ASG d 523      28.110  15.485  -4.145  0.00  0.00    -0.572 OA
ATOM     17  O1  ASG d 523      31.770  18.447  -8.422  0.00  0.00    -0.369 OA
ATOM     18  N   ASG d 523      33.699  16.837  -7.031  0.00  0.00    -0.349 N 
ATOM     19  C5  ASG d 523      29.603  15.851  -7.337  0.00  0.00     0.090 C 
ATOM     20  H   ASG d 523      31.710  16.437  -8.896  0.00  0.00     0.132 H 
ATOM     21  H   ASG d 523      36.143  16.440  -7.160  0.00  0.00     0.040 H 
ATOM     22  H   ASG d 523      36.379  16.678  -5.445  0.00  0.00     0.040 H 
ATOM     23  H   ASG d 523      36.545  18.025  -6.546  0.00  0.00     0.040 H 
ATOM     24  H   ASG d 523      27.905  16.652  -6.331  0.00  0.00     0.078 H 
ATOM     25  H   ASG d 523      27.740  14.976  -6.778  0.00  0.00     0.078 H 
ATOM     26  H   ASG d 523      27.806  17.181  -8.578  0.00  0.00     0.209 HD
ATOM     27  H   ASG d 523      29.934  14.529  -5.728  0.00  0.00     0.093 H 
ATOM     28  H   ASG d 523      32.079  14.689  -7.010  0.00  0.00     0.091 H 
ATOM     29  H   ASG d 523      32.039  17.574  -6.095  0.00  0.00     0.084 H 
ATOM     30  H   ASG d 523      31.550  19.015  -7.668  0.00  0.00     0.212 HD
ATOM     31  H   ASG d 523      34.060  16.394  -7.833  0.00  0.00     0.163 HD
ATOM     32  H   ASG d 523      29.772  15.131  -8.111  0.00  0.00     0.090 H 
ATOM     33  C6  GCD d 525      31.292  11.098  -4.920  0.00  0.00     0.233 C 
ATOM     34  C5  GCD d 525      32.190  12.194  -4.520  0.00  0.00     0.147 C 
ATOM     35  O6B GCD d 525      30.982  10.933  -6.119  0.00  0.00    -0.642 OA
ATOM     36  O2  GCD d 525      35.283  13.158  -3.970  0.00  0.00    -0.388 OA
ATOM     37  C3  GCD d 525      33.257  13.588  -2.700  0.00  0.00     0.084 C 
ATOM     38  O3  GCD d 525      32.531  14.688  -2.156  0.00  0.00    -0.389 OA
ATOM     39  O6A GCD d 525      30.872  10.349  -4.019  0.00  0.00    -0.642 OA
ATOM     40  C2  GCD d 525      34.204  14.079  -3.809  0.00  0.00     0.111 C 
ATOM     41  O5  GCD d 525      32.941  12.940  -5.523  0.00  0.00    -0.311 OA
ATOM     42  C4  GCD d 525      32.331  12.503  -3.223  0.00  0.00    -0.034 C 
ATOM     43  C1  GCD d 525      33.478  14.210  -5.153  0.00  0.00     0.165 C 
ATOM     44  H   GCD d 525      35.755  13.063  -3.128  0.00  0.00     0.210 HD
ATOM     45  H   GCD d 525      33.837  13.155  -1.912  0.00  0.00     0.093 H 
ATOM     46  H   GCD d 525      31.995  15.099  -2.853  0.00  0.00     0.210 HD
ATOM     47  H   GCD d 525      34.568  15.040  -3.516  0.00  0.00     0.095 H 
ATOM     48  H   GCD d 525      31.776  11.970  -2.536  0.00  0.00     0.085 H 
ATOM     49  H   GCD d 525      34.155  14.513  -5.924  0.00  0.00     0.134 H 
ENDROOT
TORSDOF 12
ENDMDL
MODEL 38
REMARK VINA RESULT:      -6.4      2.214      5.571
REMARK  0 active torsions:
REMARK  status: ('A' for Active; 'I' for Inactive)
REMARK       I    between atoms: C1_1  and  O1_26 
REMARK       I    between atoms: C6_2  and  C5_3 
REMARK       I    between atoms: C8_4  and  C7_20 
REMARK       I    between atoms: O2_6  and  C2_15 
REMARK       I    between atoms: O4_7  and  C4_17 
REMARK       I    between atoms: O4_7  and  S_16 
REMARK       I    between atoms: C3_8  and  O3_9 
REMARK       I    between atoms: C6_10  and  C5_28 
REMARK       I    between atoms: C6_10  and  O6_14 
REMARK       I    between atoms: O3_13  and  C3_23 
REMARK       I    between atoms: O3_13  and  C1_30 
REMARK       I    between atoms: C7_20  and  N_27 
REMARK       I    between atoms: C2_24  and  N_27 
ROOT
ATOM      1  C1  ASG d 523      27.875  14.136  -4.982  0.00  0.00     0.151 C 
ATOM      2  C8  ASG d 523      29.271  10.168  -7.397  0.00  0.00    -0.003 C 
ATOM      3  O4  ASG d 523      30.926  15.580  -5.255  0.00  0.00    -0.246 OA
ATOM      4  C6  ASG d 523      29.438  16.992  -3.177  0.00  0.00     0.043 C 
ATOM      5  O5  ASG d 523      28.288  15.484  -4.668  0.00  0.00    -0.349 OA
ATOM      6  O3  ASG d 523      31.423  12.975  -5.064  0.00  0.00    -0.348 OA
ATOM      7  O6  ASG d 523      28.215  17.562  -2.752  0.00  0.00    -0.398 OA
ATOM      8  S   ASG d 523      32.337  16.418  -5.252  0.00  0.00     0.252 S 
ATOM      9  C4  ASG d 523      30.487  14.917  -4.057  0.00  0.00     0.114 C 
ATOM     10  OSB ASG d 523      32.461  17.316  -6.513  0.00  0.00    -0.572 OA
ATOM     11  C7  ASG d 523      29.333  11.647  -7.182  0.00  0.00     0.214 C 
ATOM     12  O7  ASG d 523      29.801  12.308  -8.070  0.00  0.00    -0.274 OA
ATOM     13  OSC ASG d 523      33.402  15.468  -5.195  0.00  0.00    -0.572 OA
ATOM     14  C3  ASG d 523      30.217  13.479  -4.485  0.00  0.00     0.094 C 
ATOM     15  C2  ASG d 523      29.132  13.482  -5.560  0.00  0.00     0.087 C 
ATOM     16  OSA ASG d 523      32.278  17.219  -4.059  0.00  0.00    -0.572 OA
ATOM     17  O1  ASG d 523      26.992  14.294  -6.049  0.00  0.00    -0.369 OA
ATOM     18  N   ASG d 523      28.873  12.124  -6.018  0.00  0.00    -0.349 N 
ATOM     19  C5  ASG d 523      29.196  15.544  -3.561  0.00  0.00     0.090 C 
ATOM     20  H   ASG d 523      27.456  13.589  -4.163  0.00  0.00     0.132 H 
ATOM     21  H   ASG d 523      28.836   9.701  -6.538  0.00  0.00     0.040 H 
ATOM     22  H   ASG d 523      30.259   9.788  -7.548  0.00  0.00     0.040 H 
ATOM     23  H   ASG d 523      28.672   9.958  -8.258  0.00  0.00     0.040 H 
ATOM     24  H   ASG d 523      29.811  17.531  -4.023  0.00  0.00     0.078 H 
ATOM     25  H   ASG d 523      30.157  17.043  -2.386  0.00  0.00     0.078 H 
ATOM     26  H   ASG d 523      27.568  17.514  -3.473  0.00  0.00     0.209 HD
ATOM     27  H   ASG d 523      31.208  14.987  -3.271  0.00  0.00     0.093 H 
ATOM     28  H   ASG d 523      29.904  12.884  -3.652  0.00  0.00     0.091 H 
ATOM     29  H   ASG d 523      29.452  14.044  -6.412  0.00  0.00     0.084 H 
ATOM     30  H   ASG d 523      27.426  14.795  -6.757  0.00  0.00     0.212 HD
ATOM     31  H   ASG d 523      28.335  11.531  -5.446  0.00  0.00     0.163 HD
ATOM     32  H   ASG d 523      28.813  15.037  -2.700  0.00  0.00     0.090 H 
ATOM     33  C6  GCD d 525      33.393  12.639  -1.276  0.00  0.00     0.233 C 
ATOM     34  C5  GCD d 525      33.233  12.238  -2.684  0.00  0.00     0.147 C 
ATOM     35  O6B GCD d 525      32.403  12.712  -0.517  0.00  0.00    -0.642 OA
ATOM     36  O2  GCD d 525      33.178   9.773  -4.856  0.00  0.00    -0.388 OA
ATOM     37  C3  GCD d 525      34.207  11.969  -5.002  0.00  0.00     0.084 C 
ATOM     38  O3  GCD d 525      34.238  13.096  -5.874  0.00  0.00    -0.389 OA
ATOM     39  O6A GCD d 525      34.548  12.885  -0.883  0.00  0.00    -0.642 OA
ATOM     40  C2  GCD d 525      32.959  11.116  -5.287  0.00  0.00     0.111 C 
ATOM     41  O5  GCD d 525      31.975  11.670  -3.153  0.00  0.00    -0.311 OA
ATOM     42  C4  GCD d 525      34.254  12.383  -3.541  0.00  0.00    -0.034 C 
ATOM     43  C1  GCD d 525      31.725  11.660  -4.559  0.00  0.00     0.165 C 
ATOM     44  H   GCD d 525      33.957   9.412  -5.308  0.00  0.00     0.210 HD
ATOM     45  H   GCD d 525      35.082  11.382  -5.191  0.00  0.00     0.093 H 
ATOM     46  H   GCD d 525      33.454  13.646  -5.721  0.00  0.00     0.210 HD
ATOM     47  H   GCD d 525      32.783  11.150  -6.342  0.00  0.00     0.095 H 
ATOM     48  H   GCD d 525      35.127  12.803  -3.186  0.00  0.00     0.085 H 
ATOM     49  H   GCD d 525      30.873  11.037  -4.734  0.00  0.00     0.134 H 
ENDROOT
TORSDOF 12
ENDMDL
MODEL 39
REMARK VINA RESULT:      -6.4      2.396      3.397
REMARK  0 active torsions:
REMARK  status: ('A' for Active; 'I' for Inactive)
REMARK       I    between atoms: C1_1  and  O1_26 
REMARK       I    between atoms: C6_2  and  C5_3 
REMARK       I    between atoms: C8_4  and  C7_20 
REMARK       I    between atoms: O2_6  and  C2_15 
REMARK       I    between atoms: O4_7  and  C4_17 
REMARK       I    between atoms: O4_7  and  S_16 
REMARK       I    between atoms: C3_8  and  O3_9 
REMARK       I    between atoms: C6_10  and  C5_28 
REMARK       I    between atoms: C6_10  and  O6_14 
REMARK       I    between atoms: O3_13  and  C3_23 
REMARK       I    between atoms: O3_13  and  C1_30 
REMARK       I    between atoms: C7_20  and  N_27 
REMARK       I    between atoms: C2_24  and  N_27 
ROOT
ATOM      1  C1  ASG d 523      28.553  10.759  -4.059  0.00  0.00     0.151 C 
ATOM      2  C8  ASG d 523      27.347  14.011  -7.450  0.00  0.00    -0.003 C 
ATOM      3  O4  ASG d 523      31.531  12.252  -3.447  0.00  0.00    -0.246 OA
ATOM      4  C6  ASG d 523      31.614   9.564  -2.310  0.00  0.00     0.043 C 
ATOM      5  O5  ASG d 523      29.507  10.514  -3.003  0.00  0.00    -0.349 OA
ATOM      6  O3  ASG d 523      31.099  12.636  -6.043  0.00  0.00    -0.348 OA
ATOM      7  O6  ASG d 523      30.956   8.549  -1.575  0.00  0.00    -0.398 OA
ATOM      8  S   ASG d 523      33.020  12.808  -3.042  0.00  0.00     0.252 S 
ATOM      9  C4  ASG d 523      31.406  11.079  -4.270  0.00  0.00     0.114 C 
ATOM     10  OSB ASG d 523      32.937  13.860  -1.902  0.00  0.00    -0.572 OA
ATOM     11  C7  ASG d 523      28.012  13.672  -6.154  0.00  0.00     0.214 C 
ATOM     12  O7  ASG d 523      28.285  14.587  -5.425  0.00  0.00    -0.274 OA
ATOM     13  OSC ASG d 523      33.603  13.373  -4.217  0.00  0.00    -0.572 OA
ATOM     14  C3  ASG d 523      30.494  11.502  -5.416  0.00  0.00     0.094 C 
ATOM     15  C2  ASG d 523      29.148  11.934  -4.838  0.00  0.00     0.087 C 
ATOM     16  OSA ASG d 523      33.735  11.638  -2.606  0.00  0.00    -0.572 OA
ATOM     17  O1  ASG d 523      27.435  11.260  -3.393  0.00  0.00    -0.369 OA
ATOM     18  N   ASG d 523      28.262  12.379  -5.905  0.00  0.00    -0.349 N 
ATOM     19  C5  ASG d 523      30.740   9.963  -3.484  0.00  0.00     0.090 C 
ATOM     20  H   ASG d 523      28.334   9.913  -4.677  0.00  0.00     0.132 H 
ATOM     21  H   ASG d 523      27.159  13.113  -8.001  0.00  0.00     0.040 H 
ATOM     22  H   ASG d 523      27.984  14.653  -8.021  0.00  0.00     0.040 H 
ATOM     23  H   ASG d 523      26.421  14.509  -7.255  0.00  0.00     0.040 H 
ATOM     24  H   ASG d 523      31.780  10.413  -1.680  0.00  0.00     0.078 H 
ATOM     25  H   ASG d 523      32.556   9.203  -2.665  0.00  0.00     0.078 H 
ATOM     26  H   ASG d 523      30.103   8.882  -1.256  0.00  0.00     0.209 HD
ATOM     27  H   ASG d 523      32.356  10.720  -4.607  0.00  0.00     0.093 H 
ATOM     28  H   ASG d 523      30.354  10.700  -6.110  0.00  0.00     0.091 H 
ATOM     29  H   ASG d 523      29.276  12.761  -4.172  0.00  0.00     0.084 H 
ATOM     30  H   ASG d 523      27.694  12.022  -2.852  0.00  0.00     0.212 HD
ATOM     31  H   ASG d 523      27.827  11.700  -6.469  0.00  0.00     0.163 HD
ATOM     32  H   ASG d 523      30.583   9.093  -4.087  0.00  0.00     0.090 H 
ATOM     33  C6  GCD d 525      34.165  10.286  -7.893  0.00  0.00     0.233 C 
ATOM     34  C5  GCD d 525      33.321  11.491  -7.843  0.00  0.00     0.147 C 
ATOM     35  O6B GCD d 525      33.661   9.149  -7.770  0.00  0.00    -0.642 OA
ATOM     36  O2  GCD d 525      31.524  13.667  -9.526  0.00  0.00    -0.388 OA
ATOM     37  C3  GCD d 525      33.115  14.009  -7.722  0.00  0.00     0.084 C 
ATOM     38  O3  GCD d 525      33.192  14.649  -6.450  0.00  0.00    -0.389 OA
ATOM     39  O6A GCD d 525      35.385  10.453  -8.074  0.00  0.00    -0.642 OA
ATOM     40  C2  GCD d 525      31.644  13.778  -8.108  0.00  0.00     0.111 C 
ATOM     41  O5  GCD d 525      31.869  11.382  -7.913  0.00  0.00    -0.311 OA
ATOM     42  C4  GCD d 525      33.889  12.702  -7.745  0.00  0.00    -0.034 C 
ATOM     43  C1  GCD d 525      31.090  12.496  -7.477  0.00  0.00     0.165 C 
ATOM     44  H   GCD d 525      31.870  14.472  -9.943  0.00  0.00     0.210 HD
ATOM     45  H   GCD d 525      33.568  14.656  -8.444  0.00  0.00     0.093 H 
ATOM     46  H   GCD d 525      32.787  14.080  -5.777  0.00  0.00     0.210 HD
ATOM     47  H   GCD d 525      31.084  14.614  -7.746  0.00  0.00     0.095 H 
ATOM     48  H   GCD d 525      34.918  12.749  -7.681  0.00  0.00     0.085 H 
ATOM     49  H   GCD d 525      30.079  12.326  -7.784  0.00  0.00     0.134 H 
ENDROOT
TORSDOF 12
ENDMDL
MODEL 40
REMARK VINA RESULT:      -6.4      3.073      6.533
REMARK  0 active torsions:
REMARK  status: ('A' for Active; 'I' for Inactive)
REMARK       I    between atoms: C1_1  and  O1_26 
REMARK       I    between atoms: C6_2  and  C5_3 
REMARK       I    between atoms: C8_4  and  C7_20 
REMARK       I    between atoms: O2_6  and  C2_15 
REMARK       I    between atoms: O4_7  and  C4_17 
REMARK       I    between atoms: O4_7  and  S_16 
REMARK       I    between atoms: C3_8  and  O3_9 
REMARK       I    between atoms: C6_10  and  C5_28 
REMARK       I    between atoms: C6_10  and  O6_14 
REMARK       I    between atoms: O3_13  and  C3_23 
REMARK       I    between atoms: O3_13  and  C1_30 
REMARK       I    between atoms: C7_20  and  N_27 
REMARK       I    between atoms: C2_24  and  N_27 
ROOT
ATOM      1  C1  ASG d 523      34.625  15.935  -4.719  0.00  0.00     0.151 C 
ATOM      2  C8  ASG d 523      34.635  13.141  -0.753  0.00  0.00    -0.003 C 
ATOM      3  O4  ASG d 523      31.842  14.455  -5.959  0.00  0.00    -0.246 OA
ATOM      4  C6  ASG d 523      33.130  15.927  -8.128  0.00  0.00     0.043 C 
ATOM      5  O5  ASG d 523      33.803  16.315  -5.844  0.00  0.00    -0.349 OA
ATOM      6  O3  ASG d 523      33.121  12.518  -4.662  0.00  0.00    -0.348 OA
ATOM      7  O6  ASG d 523      33.782  17.107  -8.558  0.00  0.00    -0.398 OA
ATOM      8  S   ASG d 523      30.535  13.838  -6.734  0.00  0.00     0.252 S 
ATOM      9  C4  ASG d 523      33.165  14.125  -6.416  0.00  0.00     0.114 C 
ATOM     10  OSB ASG d 523      29.232  14.566  -6.306  0.00  0.00    -0.572 OA
ATOM     11  C7  ASG d 523      33.890  13.894  -1.811  0.00  0.00     0.214 C 
ATOM     12  O7  ASG d 523      32.731  14.126  -1.600  0.00  0.00    -0.274 OA
ATOM     13  OSC ASG d 523      30.469  12.445  -6.424  0.00  0.00    -0.572 OA
ATOM     14  C3  ASG d 523      33.888  13.609  -5.177  0.00  0.00     0.094 C 
ATOM     15  C2  ASG d 523      33.912  14.717  -4.126  0.00  0.00     0.087 C 
ATOM     16  OSA ASG d 523      30.807  14.057  -8.130  0.00  0.00    -0.572 OA
ATOM     17  O1  ASG d 523      34.448  16.973  -3.805  0.00  0.00    -0.369 OA
ATOM     18  N   ASG d 523      34.566  14.246  -2.912  0.00  0.00    -0.349 N 
ATOM     19  C5  ASG d 523      33.866  15.373  -6.922  0.00  0.00     0.090 C 
ATOM     20  H   ASG d 523      35.652  15.747  -4.952  0.00  0.00     0.132 H 
ATOM     21  H   ASG d 523      35.650  13.002  -1.062  0.00  0.00     0.040 H 
ATOM     22  H   ASG d 523      34.174  12.188  -0.603  0.00  0.00     0.040 H 
ATOM     23  H   ASG d 523      34.614  13.696   0.160  0.00  0.00     0.040 H 
ATOM     24  H   ASG d 523      32.119  16.152  -7.859  0.00  0.00     0.078 H 
ATOM     25  H   ASG d 523      33.129  15.204  -8.917  0.00  0.00     0.078 H 
ATOM     26  H   ASG d 523      33.779  17.758  -7.840  0.00  0.00     0.209 HD
ATOM     27  H   ASG d 523      33.150  13.412  -7.213  0.00  0.00     0.093 H 
ATOM     28  H   ASG d 523      34.887  13.308  -5.413  0.00  0.00     0.091 H 
ATOM     29  H   ASG d 523      32.916  14.998  -3.856  0.00  0.00     0.084 H 
ATOM     30  H   ASG d 523      33.501  17.095  -3.634  0.00  0.00     0.212 HD
ATOM     31  H   ASG d 523      35.548  14.184  -2.902  0.00  0.00     0.163 HD
ATOM     32  H   ASG d 523      34.874  15.170  -7.219  0.00  0.00     0.090 H 
ATOM     33  C6  GCD d 525      34.318   9.869  -7.807  0.00  0.00     0.233 C 
ATOM     34  C5  GCD d 525      33.828  10.104  -6.439  0.00  0.00     0.147 C 
ATOM     35  O6B GCD d 525      35.301  10.500  -8.250  0.00  0.00    -0.642 OA
ATOM     36  O2  GCD d 525      33.995   9.251  -3.270  0.00  0.00    -0.388 OA
ATOM     37  C3  GCD d 525      32.066   9.751  -4.659  0.00  0.00     0.084 C 
ATOM     38  O3  GCD d 525      30.913  10.589  -4.652  0.00  0.00    -0.389 OA
ATOM     39  O6A GCD d 525      33.719   9.016  -8.486  0.00  0.00    -0.642 OA
ATOM     40  C2  GCD d 525      33.123  10.301  -3.686  0.00  0.00     0.111 C 
ATOM     41  O5  GCD d 525      34.625  10.871  -5.489  0.00  0.00    -0.311 OA
ATOM     42  C4  GCD d 525      32.647   9.599  -6.055  0.00  0.00    -0.034 C 
ATOM     43  C1  GCD d 525      33.970  11.401  -4.336  0.00  0.00     0.165 C 
ATOM     44  H   GCD d 525      33.476   8.544  -2.855  0.00  0.00     0.210 HD
ATOM     45  H   GCD d 525      31.767   8.776  -4.335  0.00  0.00     0.093 H 
ATOM     46  H   GCD d 525      31.159  11.481  -4.944  0.00  0.00     0.210 HD
ATOM     47  H   GCD d 525      32.602  10.713  -2.848  0.00  0.00     0.095 H 
ATOM     48  H   GCD d 525      32.096   9.075  -6.752  0.00  0.00     0.085 H 
ATOM     49  H   GCD d 525      34.726  11.748  -3.663  0.00  0.00     0.134 H 
ENDROOT
TORSDOF 12
ENDMDL
MODEL 41
REMARK VINA RESULT:      -6.4      2.707      6.378
REMARK  0 active torsions:
REMARK  status: ('A' for Active; 'I' for Inactive)
REMARK       I    between atoms: C1_1  and  O1_26 
REMARK       I    between atoms: C6_2  and  C5_3 
REMARK       I    between atoms: C8_4  and  C7_20 
REMARK       I    between atoms: O2_6  and  C2_15 
REMARK       I    between atoms: O4_7  and  C4_17 
REMARK       I    between atoms: O4_7  and  S_16 
REMARK       I    between atoms: C3_8  and  O3_9 
REMARK       I    between atoms: C6_10  and  C5_28 
REMARK       I    between atoms: C6_10  and  O6_14 
REMARK       I    between atoms: O3_13  and  C3_23 
REMARK       I    between atoms: O3_13  and  C1_30 
REMARK       I    between atoms: C7_20  and  N_27 
REMARK       I    between atoms: C2_24  and  N_27 
ROOT
ATOM      1  C1  ASG d 523      32.949  16.357  -4.813  0.00  0.00     0.151 C 
ATOM      2  C8  ASG d 523      34.618  12.510  -2.375  0.00  0.00    -0.003 C 
ATOM      3  O4  ASG d 523      29.717  15.452  -4.360  0.00  0.00    -0.246 OA
ATOM      4  C6  ASG d 523      29.812  17.440  -6.498  0.00  0.00     0.043 C 
ATOM      5  O5  ASG d 523      31.739  17.095  -5.088  0.00  0.00    -0.349 OA
ATOM      6  O3  ASG d 523      31.044  13.156  -4.556  0.00  0.00    -0.348 OA
ATOM      7  O6  ASG d 523      30.338  18.661  -6.980  0.00  0.00    -0.398 OA
ATOM      8  S   ASG d 523      28.105  15.159  -4.279  0.00  0.00     0.252 S 
ATOM      9  C4  ASG d 523      30.426  15.209  -5.588  0.00  0.00     0.114 C 
ATOM     10  OSB ASG d 523      27.483  15.788  -3.002  0.00  0.00    -0.572 OA
ATOM     11  C7  ASG d 523      33.590  13.580  -2.568  0.00  0.00     0.214 C 
ATOM     12  O7  ASG d 523      32.847  13.794  -1.649  0.00  0.00    -0.274 OA
ATOM     13  OSC ASG d 523      27.924  13.742  -4.290  0.00  0.00    -0.572 OA
ATOM     14  C3  ASG d 523      31.593  14.313  -5.192  0.00  0.00     0.094 C 
ATOM     15  C2  ASG d 523      32.460  15.054  -4.176  0.00  0.00     0.087 C 
ATOM     16  OSA ASG d 523      27.567  15.772  -5.464  0.00  0.00    -0.572 OA
ATOM     17  O1  ASG d 523      33.562  17.082  -3.792  0.00  0.00    -0.369 OA
ATOM     18  N   ASG d 523      33.568  14.211  -3.749  0.00  0.00    -0.349 N 
ATOM     19  C5  ASG d 523      30.962  16.516  -6.144  0.00  0.00     0.090 C 
ATOM     20  H   ASG d 523      33.585  16.198  -5.659  0.00  0.00     0.132 H 
ATOM     21  H   ASG d 523      35.211  12.420  -3.261  0.00  0.00     0.040 H 
ATOM     22  H   ASG d 523      34.131  11.579  -2.175  0.00  0.00     0.040 H 
ATOM     23  H   ASG d 523      35.248  12.767  -1.550  0.00  0.00     0.040 H 
ATOM     24  H   ASG d 523      29.218  17.623  -5.627  0.00  0.00     0.078 H 
ATOM     25  H   ASG d 523      29.199  16.986  -7.249  0.00  0.00     0.078 H 
ATOM     26  H   ASG d 523      30.892  19.068  -6.295  0.00  0.00     0.209 HD
ATOM     27  H   ASG d 523      29.799  14.768  -6.334  0.00  0.00     0.093 H 
ATOM     28  H   ASG d 523      32.179  14.047  -6.047  0.00  0.00     0.091 H 
ATOM     29  H   ASG d 523      31.891  15.290  -3.302  0.00  0.00     0.084 H 
ATOM     30  H   ASG d 523      32.941  17.194  -3.056  0.00  0.00     0.212 HD
ATOM     31  H   ASG d 523      34.335  14.101  -4.356  0.00  0.00     0.163 HD
ATOM     32  H   ASG d 523      31.543  16.362  -7.031  0.00  0.00     0.090 H 
ATOM     33  C6  GCD d 525      29.599  11.512  -8.237  0.00  0.00     0.233 C 
ATOM     34  C5  GCD d 525      30.050  11.351  -6.846  0.00  0.00     0.147 C 
ATOM     35  O6B GCD d 525      30.260  12.198  -9.047  0.00  0.00    -0.642 OA
ATOM     36  O2  GCD d 525      31.813   9.584  -4.709  0.00  0.00    -0.388 OA
ATOM     37  C3  GCD d 525      29.604  10.569  -4.482  0.00  0.00     0.084 C 
ATOM     38  O3  GCD d 525      28.883  11.422  -3.596  0.00  0.00    -0.389 OA
ATOM     39  O6A GCD d 525      28.549  10.931  -8.566  0.00  0.00    -0.642 OA
ATOM     40  C2  GCD d 525      31.118  10.752  -4.274  0.00  0.00     0.111 C 
ATOM     41  O5  GCD d 525      31.393  11.760  -6.450  0.00  0.00    -0.311 OA
ATOM     42  C4  GCD d 525      29.228  10.814  -5.934  0.00  0.00    -0.034 C 
ATOM     43  C1  GCD d 525      31.655  11.953  -5.060  0.00  0.00     0.165 C 
ATOM     44  H   GCD d 525      31.486   8.812  -4.221  0.00  0.00     0.210 HD
ATOM     45  H   GCD d 525      29.340   9.558  -4.254  0.00  0.00     0.093 H 
ATOM     46  H   GCD d 525      29.106  12.347  -3.784  0.00  0.00     0.210 HD
ATOM     47  H   GCD d 525      31.278  10.920  -3.230  0.00  0.00     0.095 H 
ATOM     48  H   GCD d 525      28.278  10.549  -6.237  0.00  0.00     0.085 H 
ATOM     49  H   GCD d 525      32.714  12.046  -4.938  0.00  0.00     0.134 H 
ENDROOT
TORSDOF 12
ENDMDL
MODEL 42
REMARK VINA RESULT:      -6.4      2.501      5.279
REMARK  0 active torsions:
REMARK  status: ('A' for Active; 'I' for Inactive)
REMARK       I    between atoms: C1_1  and  O1_26 
REMARK       I    between atoms: C6_2  and  C5_3 
REMARK       I    between atoms: C8_4  and  C7_20 
REMARK       I    between atoms: O2_6  and  C2_15 
REMARK       I    between atoms: O4_7  and  C4_17 
REMARK       I    between atoms: O4_7  and  S_16 
REMARK       I    between atoms: C3_8  and  O3_9 
REMARK       I    between atoms: C6_10  and  C5_28 
REMARK       I    between atoms: C6_10  and  O6_14 
REMARK       I    between atoms: O3_13  and  C3_23 
REMARK       I    between atoms: O3_13  and  C1_30 
REMARK       I    between atoms: C7_20  and  N_27 
REMARK       I    between atoms: C2_24  and  N_27 
ROOT
ATOM      1  C1  ASG d 523      34.302  13.835  -3.910  0.00  0.00     0.151 C 
ATOM      2  C8  ASG d 523      33.787  14.553  -8.679  0.00  0.00    -0.003 C 
ATOM      3  O4  ASG d 523      32.021  11.331  -3.870  0.00  0.00    -0.246 OA
ATOM      4  C6  ASG d 523      32.443  12.217  -1.120  0.00  0.00     0.043 C 
ATOM      5  O5  ASG d 523      33.971  12.906  -2.855  0.00  0.00    -0.349 OA
ATOM      6  O3  ASG d 523      31.153  13.011  -5.739  0.00  0.00    -0.348 OA
ATOM      7  O6  ASG d 523      33.352  12.613  -0.111  0.00  0.00    -0.398 OA
ATOM      8  S   ASG d 523      30.924  10.132  -3.646  0.00  0.00     0.252 S 
ATOM      9  C4  ASG d 523      31.709  12.671  -3.451  0.00  0.00     0.114 C 
ATOM     10  OSB ASG d 523      31.570   8.734  -3.854  0.00  0.00    -0.572 OA
ATOM     11  C7  ASG d 523      33.823  13.632  -7.500  0.00  0.00     0.214 C 
ATOM     12  O7  ASG d 523      33.955  12.460  -7.727  0.00  0.00    -0.274 OA
ATOM     13  OSC ASG d 523      29.858  10.345  -4.573  0.00  0.00    -0.572 OA
ATOM     14  C3  ASG d 523      31.962  13.533  -4.682  0.00  0.00     0.094 C 
ATOM     15  C2  ASG d 523      33.429  13.394  -5.087  0.00  0.00     0.087 C 
ATOM     16  OSA ASG d 523      30.485  10.294  -2.286  0.00  0.00    -0.572 OA
ATOM     17  O1  ASG d 523      35.612  13.504  -4.252  0.00  0.00    -0.369 OA
ATOM     18  N   ASG d 523      33.698  14.178  -6.284  0.00  0.00    -0.349 N 
ATOM     19  C5  ASG d 523      32.648  13.098  -2.338  0.00  0.00     0.090 C 
ATOM     20  H   ASG d 523      34.177  14.868  -3.659  0.00  0.00     0.132 H 
ATOM     21  H   ASG d 523      33.666  15.561  -8.341  0.00  0.00     0.040 H 
ATOM     22  H   ASG d 523      32.966  14.288  -9.313  0.00  0.00     0.040 H 
ATOM     23  H   ASG d 523      34.702  14.467  -9.226  0.00  0.00     0.040 H 
ATOM     24  H   ASG d 523      32.619  11.195  -1.382  0.00  0.00     0.078 H 
ATOM     25  H   ASG d 523      31.439  12.319  -0.764  0.00  0.00     0.078 H 
ATOM     26  H   ASG d 523      34.260  12.519  -0.439  0.00  0.00     0.209 HD
ATOM     27  H   ASG d 523      30.707  12.756  -3.085  0.00  0.00     0.093 H 
ATOM     28  H   ASG d 523      31.733  14.560  -4.485  0.00  0.00     0.091 H 
ATOM     29  H   ASG d 523      33.656  12.375  -5.322  0.00  0.00     0.084 H 
ATOM     30  H   ASG d 523      35.662  12.560  -4.468  0.00  0.00     0.212 HD
ATOM     31  H   ASG d 523      33.792  15.154  -6.194  0.00  0.00     0.163 HD
ATOM     32  H   ASG d 523      32.477  14.113  -2.041  0.00  0.00     0.090 H 
ATOM     33  C6  GCD d 525      27.527  14.547  -4.055  0.00  0.00     0.233 C 
ATOM     34  C5  GCD d 525      28.315  14.084  -5.209  0.00  0.00     0.147 C 
ATOM     35  O6B GCD d 525      28.004  15.372  -3.247  0.00  0.00    -0.642 OA
ATOM     36  O2  GCD d 525      29.120  14.552  -8.360  0.00  0.00    -0.388 OA
ATOM     37  C3  GCD d 525      28.606  12.503  -7.161  0.00  0.00     0.084 C 
ATOM     38  O3  GCD d 525      29.166  11.212  -6.929  0.00  0.00    -0.389 OA
ATOM     39  O6A GCD d 525      26.376  14.092  -3.933  0.00  0.00    -0.642 OA
ATOM     40  C2  GCD d 525      29.702  13.478  -7.622  0.00  0.00     0.111 C 
ATOM     41  O5  GCD d 525      29.550  14.762  -5.583  0.00  0.00    -0.311 OA
ATOM     42  C4  GCD d 525      27.890  13.038  -5.933  0.00  0.00    -0.034 C 
ATOM     43  C1  GCD d 525      30.466  14.071  -6.432  0.00  0.00     0.165 C 
ATOM     44  H   GCD d 525      28.632  14.195  -9.119  0.00  0.00     0.210 HD
ATOM     45  H   GCD d 525      27.874  12.409  -7.936  0.00  0.00     0.093 H 
ATOM     46  H   GCD d 525      29.834  11.271  -6.228  0.00  0.00     0.210 HD
ATOM     47  H   GCD d 525      30.385  12.926  -8.233  0.00  0.00     0.095 H 
ATOM     48  H   GCD d 525      27.022  12.567  -5.636  0.00  0.00     0.085 H 
ATOM     49  H   GCD d 525      31.199  14.777  -6.763  0.00  0.00     0.134 H 
ENDROOT
TORSDOF 12
ENDMDL
MODEL 43
REMARK VINA RESULT:      -6.3      3.136      4.199
REMARK  0 active torsions:
REMARK  status: ('A' for Active; 'I' for Inactive)
REMARK       I    between atoms: C1_1  and  O1_26 
REMARK       I    between atoms: C6_2  and  C5_3 
REMARK       I    between atoms: C8_4  and  C7_20 
REMARK       I    between atoms: O2_6  and  C2_15 
REMARK       I    between atoms: O4_7  and  C4_17 
REMARK       I    between atoms: O4_7  and  S_16 
REMARK       I    between atoms: C3_8  and  O3_9 
REMARK       I    between atoms: C6_10  and  C5_28 
REMARK       I    between atoms: C6_10  and  O6_14 
REMARK       I    between atoms: O3_13  and  C3_23 
REMARK       I    between atoms: O3_13  and  C1_30 
REMARK       I    between atoms: C7_20  and  N_27 
REMARK       I    between atoms: C2_24  and  N_27 
ROOT
ATOM      1  C1  ASG d 523      32.013   8.094  -2.721  0.00  0.00     0.151 C 
ATOM      2  C8  ASG d 523      27.607   8.892  -4.587  0.00  0.00    -0.003 C 
ATOM      3  O4  ASG d 523      33.147  11.144  -3.660  0.00  0.00    -0.246 OA
ATOM      4  C6  ASG d 523      35.456   9.475  -3.021  0.00  0.00     0.043 C 
ATOM      5  O5  ASG d 523      33.242   8.766  -2.375  0.00  0.00    -0.349 OA
ATOM      6  O3  ASG d 523      31.427  10.444  -5.563  0.00  0.00    -0.348 OA
ATOM      7  O6  ASG d 523      36.052   8.529  -2.154  0.00  0.00    -0.398 OA
ATOM      8  S   ASG d 523      33.883  12.553  -4.065  0.00  0.00     0.252 S 
ATOM      9  C4  ASG d 523      33.442   9.946  -4.399  0.00  0.00     0.114 C 
ATOM     10  OSB ASG d 523      33.688  13.627  -2.960  0.00  0.00    -0.572 OA
ATOM     11  C7  ASG d 523      28.834   9.393  -3.893  0.00  0.00     0.214 C 
ATOM     12  O7  ASG d 523      28.752  10.455  -3.338  0.00  0.00    -0.274 OA
ATOM     13  OSC ASG d 523      33.325  12.989  -5.305  0.00  0.00    -0.572 OA
ATOM     14  C3  ASG d 523      32.081   9.408  -4.826  0.00  0.00     0.094 C 
ATOM     15  C2  ASG d 523      31.255   9.113  -3.576  0.00  0.00     0.087 C 
ATOM     16  OSA ASG d 523      35.273  12.208  -4.201  0.00  0.00    -0.572 OA
ATOM     17  O1  ASG d 523      31.322   8.009  -1.513  0.00  0.00    -0.369 OA
ATOM     18  N   ASG d 523      29.933   8.629  -3.949  0.00  0.00    -0.349 N 
ATOM     19  C5  ASG d 523      34.121   8.933  -3.495  0.00  0.00     0.090 C 
ATOM     20  H   ASG d 523      32.135   7.148  -3.206  0.00  0.00     0.132 H 
ATOM     21  H   ASG d 523      27.814   7.944  -5.038  0.00  0.00     0.040 H 
ATOM     22  H   ASG d 523      27.315   9.590  -5.343  0.00  0.00     0.040 H 
ATOM     23  H   ASG d 523      26.815   8.784  -3.876  0.00  0.00     0.040 H 
ATOM     24  H   ASG d 523      35.305  10.397  -2.498  0.00  0.00     0.078 H 
ATOM     25  H   ASG d 523      36.095   9.652  -3.861  0.00  0.00     0.078 H 
ATOM     26  H   ASG d 523      35.469   8.374  -1.395  0.00  0.00     0.209 HD
ATOM     27  H   ASG d 523      34.091  10.134  -5.227  0.00  0.00     0.093 H 
ATOM     28  H   ASG d 523      32.187   8.519  -5.412  0.00  0.00     0.091 H 
ATOM     29  H   ASG d 523      31.112  10.004  -3.004  0.00  0.00     0.084 H 
ATOM     30  H   ASG d 523      31.243   8.894  -1.123  0.00  0.00     0.212 HD
ATOM     31  H   ASG d 523      29.843   7.698  -4.255  0.00  0.00     0.163 HD
ATOM     32  H   ASG d 523      34.304   8.009  -4.002  0.00  0.00     0.090 H 
ATOM     33  C6  GCD d 525      33.936   9.928  -8.995  0.00  0.00     0.233 C 
ATOM     34  C5  GCD d 525      32.672  10.364  -8.379  0.00  0.00     0.147 C 
ATOM     35  O6B GCD d 525      34.419   8.805  -8.736  0.00  0.00    -0.642 OA
ATOM     36  O2  GCD d 525      29.396  10.485  -8.605  0.00  0.00    -0.388 OA
ATOM     37  C3  GCD d 525      30.984  12.189  -7.914  0.00  0.00     0.084 C 
ATOM     38  O3  GCD d 525      31.213  13.082  -6.827  0.00  0.00    -0.389 OA
ATOM     39  O6A GCD d 525      34.485  10.717  -9.785  0.00  0.00    -0.642 OA
ATOM     40  C2  GCD d 525      30.059  11.043  -7.470  0.00  0.00     0.111 C 
ATOM     41  O5  GCD d 525      31.828   9.411  -7.668  0.00  0.00    -0.311 OA
ATOM     42  C4  GCD d 525      32.284  11.643  -8.481  0.00  0.00    -0.034 C 
ATOM     43  C1  GCD d 525      30.842   9.924  -6.772  0.00  0.00     0.165 C 
ATOM     44  H   GCD d 525      28.894  11.180  -9.059  0.00  0.00     0.210 HD
ATOM     45  H   GCD d 525      30.506  12.740  -8.697  0.00  0.00     0.093 H 
ATOM     46  H   GCD d 525      31.647  12.605  -6.102  0.00  0.00     0.210 HD
ATOM     47  H   GCD d 525      29.351  11.453  -6.782  0.00  0.00     0.095 H 
ATOM     48  H   GCD d 525      32.909  12.299  -8.975  0.00  0.00     0.085 H 
ATOM     49  H   GCD d 525      30.194   9.116  -6.503  0.00  0.00     0.134 H 
ENDROOT
TORSDOF 12
ENDMDL
MODEL 44
REMARK VINA RESULT:      -6.3      2.479      5.706
REMARK  0 active torsions:
REMARK  status: ('A' for Active; 'I' for Inactive)
REMARK       I    between atoms: C1_1  and  O1_26 
REMARK       I    between atoms: C6_2  and  C5_3 
REMARK       I    between atoms: C8_4  and  C7_20 
REMARK       I    between atoms: O2_6  and  C2_15 
REMARK       I    between atoms: O4_7  and  C4_17 
REMARK       I    between atoms: O4_7  and  S_16 
REMARK       I    between atoms: C3_8  and  O3_9 
REMARK       I    between atoms: C6_10  and  C5_28 
REMARK       I    between atoms: C6_10  and  O6_14 
REMARK       I    between atoms: O3_13  and  C3_23 
REMARK       I    between atoms: O3_13  and  C1_30 
REMARK       I    between atoms: C7_20  and  N_27 
REMARK       I    between atoms: C2_24  and  N_27 
ROOT
ATOM      1  C1  ASG d 523      33.442  15.014  -5.577  0.00  0.00     0.151 C 
ATOM      2  C8  ASG d 523      31.917  14.010 -10.071  0.00  0.00    -0.003 C 
ATOM      3  O4  ASG d 523      32.835  11.865  -4.487  0.00  0.00    -0.246 OA
ATOM      4  C6  ASG d 523      33.142  13.590  -2.151  0.00  0.00     0.043 C 
ATOM      5  O5  ASG d 523      33.806  14.385  -4.330  0.00  0.00    -0.349 OA
ATOM      6  O3  ASG d 523      30.949  12.330  -6.303  0.00  0.00    -0.348 OA
ATOM      7  O6  ASG d 523      33.852  14.635  -1.513  0.00  0.00    -0.398 OA
ATOM      8  S   ASG d 523      32.572  10.413  -3.770  0.00  0.00     0.252 S 
ATOM      9  C4  ASG d 523      31.938  12.960  -4.232  0.00  0.00     0.114 C 
ATOM     10  OSB ASG d 523      33.811   9.486  -3.906  0.00  0.00    -0.572 OA
ATOM     11  C7  ASG d 523      32.604  13.594  -8.809  0.00  0.00     0.214 C 
ATOM     12  O7  ASG d 523      33.292  12.610  -8.861  0.00  0.00    -0.274 OA
ATOM     13  OSC ASG d 523      31.425   9.829  -4.390  0.00  0.00    -0.572 OA
ATOM     14  C3  ASG d 523      31.517  13.447  -5.614  0.00  0.00     0.094 C 
ATOM     15  C2  ASG d 523      32.760  13.900  -6.376  0.00  0.00     0.087 C 
ATOM     16  OSA ASG d 523      32.323  10.733  -2.390  0.00  0.00    -0.572 OA
ATOM     17  O1  ASG d 523      34.663  15.252  -6.205  0.00  0.00    -0.369 OA
ATOM     18  N   ASG d 523      32.398  14.340  -7.716  0.00  0.00    -0.349 N 
ATOM     19  C5  ASG d 523      32.672  14.075  -3.510  0.00  0.00     0.090 C 
ATOM     20  H   ASG d 523      32.837  15.892  -5.481  0.00  0.00     0.132 H 
ATOM     21  H   ASG d 523      31.341  14.894  -9.889  0.00  0.00     0.040 H 
ATOM     22  H   ASG d 523      31.269  13.224 -10.400  0.00  0.00     0.040 H 
ATOM     23  H   ASG d 523      32.648  14.210 -10.825  0.00  0.00     0.040 H 
ATOM     24  H   ASG d 523      33.783  12.742  -2.274  0.00  0.00     0.078 H 
ATOM     25  H   ASG d 523      32.299  13.307  -1.555  0.00  0.00     0.078 H 
ATOM     26  H   ASG d 523      34.615  14.886  -2.057  0.00  0.00     0.209 HD
ATOM     27  H   ASG d 523      31.107  12.668  -3.625  0.00  0.00     0.093 H 
ATOM     28  H   ASG d 523      30.819  14.256  -5.539  0.00  0.00     0.091 H 
ATOM     29  H   ASG d 523      33.446  13.088  -6.487  0.00  0.00     0.084 H 
ATOM     30  H   ASG d 523      35.164  14.424  -6.263  0.00  0.00     0.212 HD
ATOM     31  H   ASG d 523      31.983  15.226  -7.823  0.00  0.00     0.163 HD
ATOM     32  H   ASG d 523      32.045  14.928  -3.354  0.00  0.00     0.090 H 
ATOM     33  C6  GCD d 525      27.356  12.403  -3.974  0.00  0.00     0.233 C 
ATOM     34  C5  GCD d 525      28.085  12.053  -5.203  0.00  0.00     0.147 C 
ATOM     35  O6B GCD d 525      27.449  13.547  -3.480  0.00  0.00    -0.642 OA
ATOM     36  O2  GCD d 525      28.044  11.920  -8.486  0.00  0.00    -0.388 OA
ATOM     37  C3  GCD d 525      28.859  10.308  -6.862  0.00  0.00     0.084 C 
ATOM     38  O3  GCD d 525      30.037   9.557  -6.577  0.00  0.00    -0.389 OA
ATOM     39  O6A GCD d 525      26.644  11.518  -3.464  0.00  0.00    -0.642 OA
ATOM     40  C2  GCD d 525      29.204  11.505  -7.765  0.00  0.00     0.111 C 
ATOM     41  O5  GCD d 525      28.714  13.091  -6.012  0.00  0.00    -0.311 OA
ATOM     42  C4  GCD d 525      28.164  10.773  -5.594  0.00  0.00    -0.034 C 
ATOM     43  C1  GCD d 525      29.716  12.698  -6.950  0.00  0.00     0.165 C 
ATOM     44  H   GCD d 525      27.705  11.176  -9.009  0.00  0.00     0.210 HD
ATOM     45  H   GCD d 525      28.177   9.666  -7.378  0.00  0.00     0.093 H 
ATOM     46  H   GCD d 525      30.673  10.119  -6.107  0.00  0.00     0.210 HD
ATOM     47  H   GCD d 525      29.973  11.187  -8.437  0.00  0.00     0.095 H 
ATOM     48  H   GCD d 525      27.725  10.058  -4.994  0.00  0.00     0.085 H 
ATOM     49  H   GCD d 525      29.914  13.537  -7.584  0.00  0.00     0.134 H 
ENDROOT
TORSDOF 12
ENDMDL
MODEL 45
REMARK VINA RESULT:      -6.3      2.643      6.119
REMARK  0 active torsions:
REMARK  status: ('A' for Active; 'I' for Inactive)
REMARK       I    between atoms: C1_1  and  O1_26 
REMARK       I    between atoms: C6_2  and  C5_3 
REMARK       I    between atoms: C8_4  and  C7_20 
REMARK       I    between atoms: O2_6  and  C2_15 
REMARK       I    between atoms: O4_7  and  C4_17 
REMARK       I    between atoms: O4_7  and  S_16 
REMARK       I    between atoms: C3_8  and  O3_9 
REMARK       I    between atoms: C6_10  and  C5_28 
REMARK       I    between atoms: C6_10  and  O6_14 
REMARK       I    between atoms: O3_13  and  C3_23 
REMARK       I    between atoms: O3_13  and  C1_30 
REMARK       I    between atoms: C7_20  and  N_27 
REMARK       I    between atoms: C2_24  and  N_27 
ROOT
ATOM      1  C1  ASG d 523      31.117  15.494  -3.900  0.00  0.00     0.151 C 
ATOM      2  C8  ASG d 523      34.743  13.248  -1.590  0.00  0.00    -0.003 C 
ATOM      3  O4  ASG d 523      29.412  12.607  -4.382  0.00  0.00    -0.246 OA
ATOM      4  C6  ASG d 523      28.305  14.625  -6.179  0.00  0.00     0.043 C 
ATOM      5  O5  ASG d 523      29.771  15.288  -4.382  0.00  0.00    -0.349 OA
ATOM      6  O3  ASG d 523      31.975  11.911  -4.507  0.00  0.00    -0.348 OA
ATOM      7  O6  ASG d 523      27.873  15.960  -6.367  0.00  0.00    -0.398 OA
ATOM      8  S   ASG d 523      28.466  11.316  -4.742  0.00  0.00     0.252 S 
ATOM      9  C4  ASG d 523      30.206  13.220  -5.413  0.00  0.00     0.114 C 
ATOM     10  OSB ASG d 523      27.458  11.021  -3.598  0.00  0.00    -0.572 OA
ATOM     11  C7  ASG d 523      33.286  13.375  -1.909  0.00  0.00     0.214 C 
ATOM     12  O7  ASG d 523      32.518  12.800  -1.187  0.00  0.00    -0.274 OA
ATOM     13  OSC ASG d 523      29.328  10.200  -4.965  0.00  0.00    -0.572 OA
ATOM     14  C3  ASG d 523      31.621  13.254  -4.845  0.00  0.00     0.094 C 
ATOM     15  C2  ASG d 523      31.616  14.087  -3.564  0.00  0.00     0.087 C 
ATOM     16  OSA ASG d 523      27.775  11.700  -5.944  0.00  0.00    -0.572 OA
ATOM     17  O1  ASG d 523      30.943  16.147  -2.681  0.00  0.00    -0.369 OA
ATOM     18  N   ASG d 523      32.948  14.111  -2.975  0.00  0.00    -0.349 N 
ATOM     19  C5  ASG d 523      29.730  14.640  -5.659  0.00  0.00     0.090 C 
ATOM     20  H   ASG d 523      31.763  16.019  -4.573  0.00  0.00     0.132 H 
ATOM     21  H   ASG d 523      35.314  13.804  -2.304  0.00  0.00     0.040 H 
ATOM     22  H   ASG d 523      35.028  12.217  -1.630  0.00  0.00     0.040 H 
ATOM     23  H   ASG d 523      34.928  13.631  -0.609  0.00  0.00     0.040 H 
ATOM     24  H   ASG d 523      27.669  14.138  -5.470  0.00  0.00     0.078 H 
ATOM     25  H   ASG d 523      28.262  14.095  -7.107  0.00  0.00     0.078 H 
ATOM     26  H   ASG d 523      27.914  16.435  -5.523  0.00  0.00     0.209 HD
ATOM     27  H   ASG d 523      30.145  12.688  -6.339  0.00  0.00     0.093 H 
ATOM     28  H   ASG d 523      32.307  13.674  -5.551  0.00  0.00     0.091 H 
ATOM     29  H   ASG d 523      30.961  13.652  -2.839  0.00  0.00     0.084 H 
ATOM     30  H   ASG d 523      30.351  15.626  -2.116  0.00  0.00     0.212 HD
ATOM     31  H   ASG d 523      33.629  14.696  -3.378  0.00  0.00     0.163 HD
ATOM     32  H   ASG d 523      30.338  15.143  -6.384  0.00  0.00     0.090 H 
ATOM     33  C6  GCD d 525      32.466  10.749  -8.599  0.00  0.00     0.233 C 
ATOM     34  C5  GCD d 525      32.760  10.573  -7.168  0.00  0.00     0.147 C 
ATOM     35  O6B GCD d 525      32.537  11.877  -9.131  0.00  0.00    -0.642 OA
ATOM     36  O2  GCD d 525      35.030   9.935  -4.880  0.00  0.00    -0.388 OA
ATOM     37  C3  GCD d 525      32.753   9.116  -5.100  0.00  0.00     0.084 C 
ATOM     38  O3  GCD d 525      31.558   9.014  -4.330  0.00  0.00    -0.389 OA
ATOM     39  O6A GCD d 525      32.161   9.730  -9.246  0.00  0.00    -0.642 OA
ATOM     40  C2  GCD d 525      33.678  10.189  -4.499  0.00  0.00     0.111 C 
ATOM     41  O5  GCD d 525      33.387  11.644  -6.403  0.00  0.00    -0.311 OA
ATOM     42  C4  GCD d 525      32.461   9.415  -6.561  0.00  0.00    -0.034 C 
ATOM     43  C1  GCD d 525      33.299  11.594  -4.979  0.00  0.00     0.165 C 
ATOM     44  H   GCD d 525      35.288   9.048  -4.583  0.00  0.00     0.210 HD
ATOM     45  H   GCD d 525      33.249   8.169  -5.066  0.00  0.00     0.093 H 
ATOM     46  H   GCD d 525      31.089   9.863  -4.346  0.00  0.00     0.210 HD
ATOM     47  H   GCD d 525      33.570  10.144  -3.436  0.00  0.00     0.095 H 
ATOM     48  H   GCD d 525      32.003   8.680  -7.121  0.00  0.00     0.085 H 
ATOM     49  H   GCD d 525      33.973  12.327  -4.586  0.00  0.00     0.134 H 
ENDROOT
TORSDOF 12
ENDMDL
MODEL 46
REMARK VINA RESULT:      -6.2      3.708      7.112
REMARK  0 active torsions:
REMARK  status: ('A' for Active; 'I' for Inactive)
REMARK       I    between atoms: C1_1  and  O1_26 
REMARK       I    between atoms: C6_2  and  C5_3 
REMARK       I    between atoms: C8_4  and  C7_20 
REMARK       I    between atoms: O2_6  and  C2_15 
REMARK       I    between atoms: O4_7  and  C4_17 
REMARK       I    between atoms: O4_7  and  S_16 
REMARK       I    between atoms: C3_8  and  O3_9 
REMARK       I    between atoms: C6_10  and  C5_28 
REMARK       I    between atoms: C6_10  and  O6_14 
REMARK       I    between atoms: O3_13  and  C3_23 
REMARK       I    between atoms: O3_13  and  C1_30 
REMARK       I    between atoms: C7_20  and  N_27 
REMARK       I    between atoms: C2_24  and  N_27 
ROOT
ATOM      1  C1  ASG d 523      33.718  17.370  -4.736  0.00  0.00     0.151 C 
ATOM      2  C8  ASG d 523      36.591  18.918  -8.325  0.00  0.00    -0.003 C 
ATOM      3  O4  ASG d 523      33.490  14.252  -6.037  0.00  0.00    -0.246 OA
ATOM      4  C6  ASG d 523      31.357  14.571  -4.068  0.00  0.00     0.043 C 
ATOM      5  O5  ASG d 523      33.162  16.170  -4.158  0.00  0.00    -0.349 OA
ATOM      6  O3  ASG d 523      33.665  15.858  -8.149  0.00  0.00    -0.348 OA
ATOM      7  O6  ASG d 523      30.958  15.039  -2.794  0.00  0.00    -0.398 OA
ATOM      8  S   ASG d 523      33.230  12.709  -6.530  0.00  0.00     0.252 S 
ATOM      9  C4  ASG d 523      32.454  15.237  -6.197  0.00  0.00     0.114 C 
ATOM     10  OSB ASG d 523      34.319  11.750  -5.975  0.00  0.00    -0.572 OA
ATOM     11  C7  ASG d 523      36.142  17.835  -7.394  0.00  0.00     0.214 C 
ATOM     12  O7  ASG d 523      36.870  16.888  -7.268  0.00  0.00    -0.274 OA
ATOM     13  OSC ASG d 523      33.228  12.708  -7.958  0.00  0.00    -0.572 OA
ATOM     14  C3  ASG d 523      33.124  16.389  -6.937  0.00  0.00     0.094 C 
ATOM     15  C2  ASG d 523      34.278  16.915  -6.085  0.00  0.00     0.087 C 
ATOM     16  OSA ASG d 523      31.936  12.374  -5.998  0.00  0.00    -0.572 OA
ATOM     17  O1  ASG d 523      34.822  17.652  -3.932  0.00  0.00    -0.369 OA
ATOM     18  N   ASG d 523      34.964  17.996  -6.779  0.00  0.00    -0.349 N 
ATOM     19  C5  ASG d 523      31.982  15.720  -4.838  0.00  0.00     0.090 C 
ATOM     20  H   ASG d 523      33.035  18.190  -4.820  0.00  0.00     0.132 H 
ATOM     21  H   ASG d 523      35.858  19.697  -8.346  0.00  0.00     0.040 H 
ATOM     22  H   ASG d 523      36.712  18.515  -9.308  0.00  0.00     0.040 H 
ATOM     23  H   ASG d 523      37.524  19.315  -7.985  0.00  0.00     0.040 H 
ATOM     24  H   ASG d 523      32.071  13.783  -3.955  0.00  0.00     0.078 H 
ATOM     25  H   ASG d 523      30.507  14.198  -4.601  0.00  0.00     0.078 H 
ATOM     26  H   ASG d 523      31.732  15.375  -2.316  0.00  0.00     0.209 HD
ATOM     27  H   ASG d 523      31.605  14.847  -6.719  0.00  0.00     0.093 H 
ATOM     28  H   ASG d 523      32.426  17.176  -7.133  0.00  0.00     0.091 H 
ATOM     29  H   ASG d 523      34.999  16.143  -5.917  0.00  0.00     0.084 H 
ATOM     30  H   ASG d 523      35.401  16.875  -3.894  0.00  0.00     0.212 HD
ATOM     31  H   ASG d 523      34.542  18.885  -6.796  0.00  0.00     0.163 HD
ATOM     32  H   ASG d 523      31.249  16.495  -4.924  0.00  0.00     0.090 H 
ATOM     33  C6  GCD d 525      29.817  15.467  -9.987  0.00  0.00     0.233 C 
ATOM     34  C5  GCD d 525      31.279  15.617 -10.081  0.00  0.00     0.147 C 
ATOM     35  O6B GCD d 525      29.147  16.201  -9.230  0.00  0.00    -0.642 OA
ATOM     36  O2  GCD d 525      33.806  17.069 -11.597  0.00  0.00    -0.388 OA
ATOM     37  C3  GCD d 525      33.515  14.762 -10.896  0.00  0.00     0.084 C 
ATOM     38  O3  GCD d 525      34.193  13.765 -10.134  0.00  0.00    -0.389 OA
ATOM     39  O6A GCD d 525      29.290  14.592 -10.699  0.00  0.00    -0.642 OA
ATOM     40  C2  GCD d 525      34.040  16.159 -10.523  0.00  0.00     0.111 C 
ATOM     41  O5  GCD d 525      31.941  16.781  -9.504  0.00  0.00    -0.311 OA
ATOM     42  C4  GCD d 525      32.008  14.686 -10.711  0.00  0.00    -0.034 C 
ATOM     43  C1  GCD d 525      33.347  16.706  -9.269  0.00  0.00     0.165 C 
ATOM     44  H   GCD d 525      34.238  16.739 -12.400  0.00  0.00     0.210 HD
ATOM     45  H   GCD d 525      33.715  14.578 -11.930  0.00  0.00     0.093 H 
ATOM     46  H   GCD d 525      34.026  13.910  -9.190  0.00  0.00     0.210 HD
ATOM     47  H   GCD d 525      35.087  16.064 -10.328  0.00  0.00     0.095 H 
ATOM     48  H   GCD d 525      31.516  13.865 -11.096  0.00  0.00     0.085 H 
ATOM     49  H   GCD d 525      33.693  17.693  -9.043  0.00  0.00     0.134 H 
ENDROOT
TORSDOF 12
ENDMDL
MODEL 47
REMARK VINA RESULT:      -6.2      2.610      6.237
REMARK  0 active torsions:
REMARK  status: ('A' for Active; 'I' for Inactive)
REMARK       I    between atoms: C1_1  and  O1_26 
REMARK       I    between atoms: C6_2  and  C5_3 
REMARK       I    between atoms: C8_4  and  C7_20 
REMARK       I    between atoms: O2_6  and  C2_15 
REMARK       I    between atoms: O4_7  and  C4_17 
REMARK       I    between atoms: O4_7  and  S_16 
REMARK       I    between atoms: C3_8  and  O3_9 
REMARK       I    between atoms: C6_10  and  C5_28 
REMARK       I    between atoms: C6_10  and  O6_14 
REMARK       I    between atoms: O3_13  and  C3_23 
REMARK       I    between atoms: O3_13  and  C1_30 
REMARK       I    between atoms: C7_20  and  N_27 
REMARK       I    between atoms: C2_24  and  N_27 
ROOT
ATOM      1  C1  ASG d 523      32.370  18.034  -4.700  0.00  0.00     0.151 C 
ATOM      2  C8  ASG d 523      28.106  16.107  -3.420  0.00  0.00    -0.003 C 
ATOM      3  O4  ASG d 523      32.665  16.009  -7.399  0.00  0.00    -0.246 OA
ATOM      4  C6  ASG d 523      35.287  17.165  -6.842  0.00  0.00     0.043 C 
ATOM      5  O5  ASG d 523      33.320  18.079  -5.786  0.00  0.00    -0.349 OA
ATOM      6  O3  ASG d 523      31.395  14.539  -5.583  0.00  0.00    -0.348 OA
ATOM      7  O6  ASG d 523      36.048  18.307  -6.494  0.00  0.00    -0.398 OA
ATOM      8  S   ASG d 523      33.001  15.095  -8.719  0.00  0.00     0.252 S 
ATOM      9  C4  ASG d 523      33.355  15.758  -6.162  0.00  0.00     0.114 C 
ATOM     10  OSB ASG d 523      32.409  15.729 -10.007  0.00  0.00    -0.572 OA
ATOM     11  C7  ASG d 523      29.072  16.538  -4.478  0.00  0.00     0.214 C 
ATOM     12  O7  ASG d 523      28.640  16.664  -5.592  0.00  0.00    -0.274 OA
ATOM     13  OSC ASG d 523      32.456  13.795  -8.492  0.00  0.00    -0.572 OA
ATOM     14  C3  ASG d 523      32.249  15.591  -5.126  0.00  0.00     0.094 C 
ATOM     15  C2  ASG d 523      31.432  16.881  -5.067  0.00  0.00     0.087 C 
ATOM     16  OSA ASG d 523      34.438  15.064  -8.779  0.00  0.00    -0.572 OA
ATOM     17  O1  ASG d 523      31.626  19.203  -4.852  0.00  0.00    -0.369 OA
ATOM     18  N   ASG d 523      30.343  16.744  -4.110  0.00  0.00    -0.349 N 
ATOM     19  C5  ASG d 523      34.211  16.956  -5.794  0.00  0.00     0.090 C 
ATOM     20  H   ASG d 523      32.801  17.930  -3.726  0.00  0.00     0.132 H 
ATOM     21  H   ASG d 523      28.615  16.034  -2.481  0.00  0.00     0.040 H 
ATOM     22  H   ASG d 523      27.696  15.153  -3.678  0.00  0.00     0.040 H 
ATOM     23  H   ASG d 523      27.318  16.825  -3.342  0.00  0.00     0.040 H 
ATOM     24  H   ASG d 523      34.833  17.314  -7.799  0.00  0.00     0.078 H 
ATOM     25  H   ASG d 523      35.923  16.306  -6.887  0.00  0.00     0.078 H 
ATOM     26  H   ASG d 523      35.468  19.083  -6.455  0.00  0.00     0.209 HD
ATOM     27  H   ASG d 523      33.996  14.904  -6.225  0.00  0.00     0.093 H 
ATOM     28  H   ASG d 523      32.657  15.372  -4.162  0.00  0.00     0.091 H 
ATOM     29  H   ASG d 523      30.990  17.086  -6.018  0.00  0.00     0.084 H 
ATOM     30  H   ASG d 523      31.263  19.241  -5.750  0.00  0.00     0.212 HD
ATOM     31  H   ASG d 523      30.551  16.805  -3.150  0.00  0.00     0.163 HD
ATOM     32  H   ASG d 523      34.695  16.822  -4.849  0.00  0.00     0.090 H 
ATOM     33  C6  GCD d 525      34.245  11.484  -4.643  0.00  0.00     0.233 C 
ATOM     34  C5  GCD d 525      32.859  11.924  -4.872  0.00  0.00     0.147 C 
ATOM     35  O6B GCD d 525      35.003  12.128  -3.888  0.00  0.00    -0.642 OA
ATOM     36  O2  GCD d 525      29.720  11.745  -3.920  0.00  0.00    -0.388 OA
ATOM     37  C3  GCD d 525      30.686  11.720  -6.149  0.00  0.00     0.084 C 
ATOM     38  O3  GCD d 525      30.551  12.396  -7.397  0.00  0.00    -0.389 OA
ATOM     39  O6A GCD d 525      34.614  10.446  -5.222  0.00  0.00    -0.642 OA
ATOM     40  C2  GCD d 525      30.091  12.578  -5.019  0.00  0.00     0.111 C 
ATOM     41  O5  GCD d 525      32.262  12.956  -4.033  0.00  0.00    -0.311 OA
ATOM     42  C4  GCD d 525      32.133  11.366  -5.851  0.00  0.00    -0.034 C 
ATOM     43  C1  GCD d 525      31.094  13.621  -4.514  0.00  0.00     0.165 C 
ATOM     44  H   GCD d 525      29.083  11.077  -4.221  0.00  0.00     0.210 HD
ATOM     45  H   GCD d 525      30.143  10.801  -6.212  0.00  0.00     0.093 H 
ATOM     46  H   GCD d 525      31.037  13.235  -7.365  0.00  0.00     0.210 HD
ATOM     47  H   GCD d 525      29.236  13.082  -5.417  0.00  0.00     0.095 H 
ATOM     48  H   GCD d 525      32.586  10.650  -6.440  0.00  0.00     0.085 H 
ATOM     49  H   GCD d 525      30.683  14.184  -3.702  0.00  0.00     0.134 H 
ENDROOT
TORSDOF 12
ENDMDL
MODEL 48
REMARK VINA RESULT:      -6.2      2.402      5.658
REMARK  0 active torsions:
REMARK  status: ('A' for Active; 'I' for Inactive)
REMARK       I    between atoms: C1_1  and  O1_26 
REMARK       I    between atoms: C6_2  and  C5_3 
REMARK       I    between atoms: C8_4  and  C7_20 
REMARK       I    between atoms: O2_6  and  C2_15 
REMARK       I    between atoms: O4_7  and  C4_17 
REMARK       I    between atoms: O4_7  and  S_16 
REMARK       I    between atoms: C3_8  and  O3_9 
REMARK       I    between atoms: C6_10  and  C5_28 
REMARK       I    between atoms: C6_10  and  O6_14 
REMARK       I    between atoms: O3_13  and  C3_23 
REMARK       I    between atoms: O3_13  and  C1_30 
REMARK       I    between atoms: C7_20  and  N_27 
REMARK       I    between atoms: C2_24  and  N_27 
ROOT
ATOM      1  C1  ASG d 523      30.692  16.136  -3.747  0.00  0.00     0.151 C 
ATOM      2  C8  ASG d 523      26.376  15.380  -5.827  0.00  0.00    -0.003 C 
ATOM      3  O4  ASG d 523      32.224  13.829  -5.698  0.00  0.00    -0.246 OA
ATOM      4  C6  ASG d 523      33.973  14.406  -3.432  0.00  0.00     0.043 C 
ATOM      5  O5  ASG d 523      32.099  15.850  -3.904  0.00  0.00    -0.349 OA
ATOM      6  O3  ASG d 523      29.765  12.885  -5.333  0.00  0.00    -0.348 OA
ATOM      7  O6  ASG d 523      34.548  15.373  -2.572  0.00  0.00    -0.398 OA
ATOM      8  S   ASG d 523      33.127  12.731  -6.516  0.00  0.00     0.252 S 
ATOM      9  C4  ASG d 523      31.823  13.556  -4.344  0.00  0.00     0.114 C 
ATOM     10  OSB ASG d 523      33.723  13.347  -7.812  0.00  0.00    -0.572 OA
ATOM     11  C7  ASG d 523      27.866  15.466  -5.922  0.00  0.00     0.214 C 
ATOM     12  O7  ASG d 523      28.337  15.572  -7.022  0.00  0.00    -0.274 OA
ATOM     13  OSC ASG d 523      32.281  11.620  -6.820  0.00  0.00    -0.572 OA
ATOM     14  C3  ASG d 523      30.311  13.755  -4.338  0.00  0.00     0.094 C 
ATOM     15  C2  ASG d 523      30.004  15.196  -4.740  0.00  0.00     0.087 C 
ATOM     16  OSA ASG d 523      34.171  12.366  -5.597  0.00  0.00    -0.572 OA
ATOM     17  O1  ASG d 523      30.550  17.422  -4.265  0.00  0.00    -0.369 OA
ATOM     18  N   ASG d 523      28.564  15.412  -4.780  0.00  0.00    -0.349 N 
ATOM     19  C5  ASG d 523      32.464  14.558  -3.401  0.00  0.00     0.090 C 
ATOM     20  H   ASG d 523      30.319  16.038  -2.749  0.00  0.00     0.132 H 
ATOM     21  H   ASG d 523      26.088  15.289  -4.800  0.00  0.00     0.040 H 
ATOM     22  H   ASG d 523      26.033  14.524  -6.369  0.00  0.00     0.040 H 
ATOM     23  H   ASG d 523      25.940  16.263  -6.242  0.00  0.00     0.040 H 
ATOM     24  H   ASG d 523      34.329  14.555  -4.430  0.00  0.00     0.078 H 
ATOM     25  H   ASG d 523      34.246  13.424  -3.107  0.00  0.00     0.078 H 
ATOM     26  H   ASG d 523      34.298  16.261  -2.872  0.00  0.00     0.209 HD
ATOM     27  H   ASG d 523      32.112  12.577  -4.027  0.00  0.00     0.093 H 
ATOM     28  H   ASG d 523      29.901  13.550  -3.372  0.00  0.00     0.091 H 
ATOM     29  H   ASG d 523      30.378  15.398  -5.721  0.00  0.00     0.084 H 
ATOM     30  H   ASG d 523      30.904  17.449  -5.168  0.00  0.00     0.212 HD
ATOM     31  H   ASG d 523      28.083  15.524  -3.929  0.00  0.00     0.163 HD
ATOM     32  H   ASG d 523      32.141  14.416  -2.390  0.00  0.00     0.090 H 
ATOM     33  C6  GCD d 525      30.415   9.373  -2.970  0.00  0.00     0.233 C 
ATOM     34  C5  GCD d 525      29.698  10.092  -4.035  0.00  0.00     0.147 C 
ATOM     35  O6B GCD d 525      30.597   9.902  -1.853  0.00  0.00    -0.642 OA
ATOM     36  O2  GCD d 525      26.808  10.736  -5.460  0.00  0.00    -0.388 OA
ATOM     37  C3  GCD d 525      28.974  10.260  -6.452  0.00  0.00     0.084 C 
ATOM     38  O3  GCD d 525      29.875  10.816  -7.407  0.00  0.00    -0.389 OA
ATOM     39  O6A GCD d 525      30.815   8.223  -3.231  0.00  0.00    -0.642 OA
ATOM     40  C2  GCD d 525      28.003  11.343  -5.952  0.00  0.00     0.111 C 
ATOM     41  O5  GCD d 525      28.961  11.315  -3.736  0.00  0.00    -0.311 OA
ATOM     42  C4  GCD d 525      29.709   9.617  -5.289  0.00  0.00    -0.034 C 
ATOM     43  C1  GCD d 525      28.620  12.176  -4.822  0.00  0.00     0.165 C 
ATOM     44  H   GCD d 525      26.403  10.205  -6.163  0.00  0.00     0.210 HD
ATOM     45  H   GCD d 525      28.415   9.488  -6.938  0.00  0.00     0.093 H 
ATOM     46  H   GCD d 525      30.395  11.520  -6.990  0.00  0.00     0.210 HD
ATOM     47  H   GCD d 525      27.787  11.986  -6.779  0.00  0.00     0.095 H 
ATOM     48  H   GCD d 525      30.251   8.760  -5.475  0.00  0.00     0.085 H 
ATOM     49  H   GCD d 525      27.921  12.900  -4.456  0.00  0.00     0.134 H 
ENDROOT
TORSDOF 12
ENDMDL
MODEL 49
REMARK VINA RESULT:      -6.2      2.998      5.630
REMARK  0 active torsions:
REMARK  status: ('A' for Active; 'I' for Inactive)
REMARK       I    between atoms: C1_1  and  O1_26 
REMARK       I    between atoms: C6_2  and  C5_3 
REMARK       I    between atoms: C8_4  and  C7_20 
REMARK       I    between atoms: O2_6  and  C2_15 
REMARK       I    between atoms: O4_7  and  C4_17 
REMARK       I    between atoms: O4_7  and  S_16 
REMARK       I    between atoms: C3_8  and  O3_9 
REMARK       I    between atoms: C6_10  and  C5_28 
REMARK       I    between atoms: C6_10  and  O6_14 
REMARK       I    between atoms: O3_13  and  C3_23 
REMARK       I    between atoms: O3_13  and  C1_30 
REMARK       I    between atoms: C7_20  and  N_27 
REMARK       I    between atoms: C2_24  and  N_27 
ROOT
ATOM      1  C1  ASG d 523      29.789  13.711  -7.944  0.00  0.00     0.151 C 
ATOM      2  C8  ASG d 523      33.483  15.842 -10.255  0.00  0.00    -0.003 C 
ATOM      3  O4  ASG d 523      29.788  16.018  -5.465  0.00  0.00    -0.246 OA
ATOM      4  C6  ASG d 523      28.256  13.706  -4.552  0.00  0.00     0.043 C 
ATOM      5  O5  ASG d 523      28.831  13.925  -6.885  0.00  0.00    -0.349 OA
ATOM      6  O3  ASG d 523      32.340  15.785  -6.175  0.00  0.00    -0.348 OA
ATOM      7  O6  ASG d 523      27.295  12.710  -4.844  0.00  0.00    -0.398 OA
ATOM      8  S   ASG d 523      29.660  17.011  -4.165  0.00  0.00     0.252 S 
ATOM      9  C4  ASG d 523      30.392  14.722  -5.316  0.00  0.00     0.114 C 
ATOM     10  OSB ASG d 523      28.700  18.197  -4.455  0.00  0.00    -0.572 OA
ATOM     11  C7  ASG d 523      32.239  15.937  -9.428  0.00  0.00     0.214 C 
ATOM     12  O7  ASG d 523      31.704  17.010  -9.369  0.00  0.00    -0.274 OA
ATOM     13  OSC ASG d 523      30.972  17.480  -3.850  0.00  0.00    -0.572 OA
ATOM     14  C3  ASG d 523      31.472  14.670  -6.392  0.00  0.00     0.094 C 
ATOM     15  C2  ASG d 523      30.812  14.834  -7.759  0.00  0.00     0.087 C 
ATOM     16  OSA ASG d 523      29.134  16.171  -3.121  0.00  0.00    -0.572 OA
ATOM     17  O1  ASG d 523      29.081  14.016  -9.105  0.00  0.00    -0.369 OA
ATOM     18  N   ASG d 523      31.820  14.825  -8.810  0.00  0.00    -0.349 N 
ATOM     19  C5  ASG d 523      29.364  13.637  -5.585  0.00  0.00     0.090 C 
ATOM     20  H   ASG d 523      30.233  12.737  -7.962  0.00  0.00     0.132 H 
ATOM     21  H   ASG d 523      33.857  14.840 -10.223  0.00  0.00     0.040 H 
ATOM     22  H   ASG d 523      34.221  16.511  -9.865  0.00  0.00     0.040 H 
ATOM     23  H   ASG d 523      33.259  16.107 -11.266  0.00  0.00     0.040 H 
ATOM     24  H   ASG d 523      27.794  14.671  -4.584  0.00  0.00     0.078 H 
ATOM     25  H   ASG d 523      28.660  13.545  -3.574  0.00  0.00     0.078 H 
ATOM     26  H   ASG d 523      26.932  12.861  -5.731  0.00  0.00     0.209 HD
ATOM     27  H   ASG d 523      30.780  14.568  -4.332  0.00  0.00     0.093 H 
ATOM     28  H   ASG d 523      32.007  13.744  -6.353  0.00  0.00     0.091 H 
ATOM     29  H   ASG d 523      30.306  15.774  -7.819  0.00  0.00     0.084 H 
ATOM     30  H   ASG d 523      28.703  14.906  -9.030  0.00  0.00     0.212 HD
ATOM     31  H   ASG d 523      32.212  13.962  -9.077  0.00  0.00     0.163 HD
ATOM     32  H   ASG d 523      29.797  12.659  -5.537  0.00  0.00     0.090 H 
ATOM     33  C6  GCD d 525      34.151  14.019  -2.719  0.00  0.00     0.233 C 
ATOM     34  C5  GCD d 525      34.191  14.949  -3.859  0.00  0.00     0.147 C 
ATOM     35  O6B GCD d 525      33.788  12.834  -2.874  0.00  0.00    -0.642 OA
ATOM     36  O2  GCD d 525      35.968  16.225  -6.311  0.00  0.00    -0.388 OA
ATOM     37  C3  GCD d 525      34.448  17.301  -4.751  0.00  0.00     0.084 C 
ATOM     38  O3  GCD d 525      33.313  18.164  -4.763  0.00  0.00    -0.389 OA
ATOM     39  O6A GCD d 525      34.502  14.464  -1.611  0.00  0.00    -0.642 OA
ATOM     40  C2  GCD d 525      34.611  16.625  -6.123  0.00  0.00     0.111 C 
ATOM     41  O5  GCD d 525      34.066  14.452  -5.224  0.00  0.00    -0.311 OA
ATOM     42  C4  GCD d 525      34.356  16.262  -3.647  0.00  0.00    -0.034 C 
ATOM     43  C1  GCD d 525      33.721  15.383  -6.250  0.00  0.00     0.165 C 
ATOM     44  H   GCD d 525      36.547  17.000  -6.234  0.00  0.00     0.210 HD
ATOM     45  H   GCD d 525      35.313  17.898  -4.551  0.00  0.00     0.093 H 
ATOM     46  H   GCD d 525      32.514  17.645  -4.943  0.00  0.00     0.210 HD
ATOM     47  H   GCD d 525      34.321  17.338  -6.867  0.00  0.00     0.095 H 
ATOM     48  H   GCD d 525      34.426  16.588  -2.670  0.00  0.00     0.085 H 
ATOM     49  H   GCD d 525      33.873  14.900  -7.193  0.00  0.00     0.134 H 
ENDROOT
TORSDOF 12
ENDMDL
MODEL 50
REMARK VINA RESULT:      -6.2      2.257      5.558
REMARK  0 active torsions:
REMARK  status: ('A' for Active; 'I' for Inactive)
REMARK       I    between atoms: C1_1  and  O1_26 
REMARK       I    between atoms: C6_2  and  C5_3 
REMARK       I    between atoms: C8_4  and  C7_20 
REMARK       I    between atoms: O2_6  and  C2_15 
REMARK       I    between atoms: O4_7  and  C4_17 
REMARK       I    between atoms: O4_7  and  S_16 
REMARK       I    between atoms: C3_8  and  O3_9 
REMARK       I    between atoms: C6_10  and  C5_28 
REMARK       I    between atoms: C6_10  and  O6_14 
REMARK       I    between atoms: O3_13  and  C3_23 
REMARK       I    between atoms: O3_13  and  C1_30 
REMARK       I    between atoms: C7_20  and  N_27 
REMARK       I    between atoms: C2_24  and  N_27 
ROOT
ATOM      1  C1  ASG d 523      28.608  12.422  -6.089  0.00  0.00     0.151 C 
ATOM      2  C8  ASG d 523      28.218   8.030  -4.066  0.00  0.00    -0.003 C 
ATOM      3  O4  ASG d 523      31.891  11.988  -6.798  0.00  0.00    -0.246 OA
ATOM      4  C6  ASG d 523      31.287  14.838  -7.006  0.00  0.00     0.043 C 
ATOM      5  O5  ASG d 523      29.491  13.231  -6.895  0.00  0.00    -0.349 OA
ATOM      6  O3  ASG d 523      31.507  10.663  -4.525  0.00  0.00    -0.348 OA
ATOM      7  O6  ASG d 523      30.403  15.849  -7.451  0.00  0.00    -0.398 OA
ATOM      8  S   ASG d 523      33.485  11.979  -7.185  0.00  0.00     0.252 S 
ATOM      9  C4  ASG d 523      31.437  12.750  -5.665  0.00  0.00     0.114 C 
ATOM     10  OSB ASG d 523      33.716  11.384  -8.602  0.00  0.00    -0.572 OA
ATOM     11  C7  ASG d 523      28.805   8.936  -5.102  0.00  0.00     0.214 C 
ATOM     12  O7  ASG d 523      29.331   8.414  -6.047  0.00  0.00    -0.274 OA
ATOM     13  OSC ASG d 523      34.165  11.210  -6.192  0.00  0.00    -0.572 OA
ATOM     14  C3  ASG d 523      30.639  11.759  -4.825  0.00  0.00     0.094 C 
ATOM     15  C2  ASG d 523      29.472  11.234  -5.659  0.00  0.00     0.087 C 
ATOM     16  OSA ASG d 523      33.875  13.363  -7.143  0.00  0.00    -0.572 OA
ATOM     17  O1  ASG d 523      27.682  11.919  -7.001  0.00  0.00    -0.369 OA
ATOM     18  N   ASG d 523      28.708  10.256  -4.898  0.00  0.00    -0.349 N 
ATOM     19  C5  ASG d 523      30.519  13.868  -6.127  0.00  0.00     0.090 C 
ATOM     20  H   ASG d 523      28.155  12.931  -5.263  0.00  0.00     0.132 H 
ATOM     21  H   ASG d 523      27.784   8.617  -3.283  0.00  0.00     0.040 H 
ATOM     22  H   ASG d 523      28.988   7.408  -3.659  0.00  0.00     0.040 H 
ATOM     23  H   ASG d 523      27.464   7.419  -4.513  0.00  0.00     0.040 H 
ATOM     24  H   ASG d 523      31.690  14.316  -7.849  0.00  0.00     0.078 H 
ATOM     25  H   ASG d 523      32.089  15.275  -6.450  0.00  0.00     0.078 H 
ATOM     26  H   ASG d 523      29.678  15.447  -7.955  0.00  0.00     0.209 HD
ATOM     27  H   ASG d 523      32.247  13.192  -5.126  0.00  0.00     0.093 H 
ATOM     28  H   ASG d 523      30.271  12.222  -3.933  0.00  0.00     0.091 H 
ATOM     29  H   ASG d 523      29.834  10.737  -6.534  0.00  0.00     0.084 H 
ATOM     30  H   ASG d 523      28.150  11.470  -7.723  0.00  0.00     0.212 HD
ATOM     31  H   ASG d 523      28.093  10.580  -4.201  0.00  0.00     0.163 HD
ATOM     32  H   ASG d 523      30.120  14.420  -5.302  0.00  0.00     0.090 H 
ATOM     33  C6  GCD d 525      33.785  12.920  -1.687  0.00  0.00     0.233 C 
ATOM     34  C5  GCD d 525      33.294  11.636  -2.213  0.00  0.00     0.147 C 
ATOM     35  O6B GCD d 525      33.001  13.875  -1.500  0.00  0.00    -0.642 OA
ATOM     36  O2  GCD d 525      32.096   8.656  -1.525  0.00  0.00    -0.388 OA
ATOM     37  C3  GCD d 525      33.769   9.335  -3.150  0.00  0.00     0.084 C 
ATOM     38  O3  GCD d 525      34.048   9.199  -4.541  0.00  0.00    -0.389 OA
ATOM     39  O6A GCD d 525      35.000  13.002  -1.431  0.00  0.00    -0.642 OA
ATOM     40  C2  GCD d 525      32.279   9.060  -2.881  0.00  0.00     0.111 C 
ATOM     41  O5  GCD d 525      31.864  11.361  -2.279  0.00  0.00    -0.311 OA
ATOM     42  C4  GCD d 525      34.166  10.705  -2.625  0.00  0.00    -0.034 C 
ATOM     43  C1  GCD d 525      31.421  10.306  -3.132  0.00  0.00     0.165 C 
ATOM     44  H   GCD d 525      32.632   7.867  -1.347  0.00  0.00     0.210 HD
ATOM     45  H   GCD d 525      34.357   8.613  -2.624  0.00  0.00     0.093 H 
ATOM     46  H   GCD d 525      33.525   9.845  -5.041  0.00  0.00     0.210 HD
ATOM     47  H   GCD d 525      31.972   8.285  -3.551  0.00  0.00     0.095 H 
ATOM     48  H   GCD d 525      35.172  10.932  -2.583  0.00  0.00     0.085 H 
ATOM     49  H   GCD d 525      30.393  10.113  -2.904  0.00  0.00     0.134 H 
ENDROOT
TORSDOF 12
ENDMDL
MODEL 51
REMARK VINA RESULT:      -6.1      3.648      6.642
REMARK  0 active torsions:
REMARK  status: ('A' for Active; 'I' for Inactive)
REMARK       I    between atoms: C1_1  and  O1_26 
REMARK       I    between atoms: C6_2  and  C5_3 
REMARK       I    between atoms: C8_4  and  C7_20 
REMARK       I    between atoms: O2_6  and  C2_15 
REMARK       I    between atoms: O4_7  and  C4_17 
REMARK       I    between atoms: O4_7  and  S_16 
REMARK       I    between atoms: C3_8  and  O3_9 
REMARK       I    between atoms: C6_10  and  C5_28 
REMARK       I    between atoms: C6_10  and  O6_14 
REMARK       I    between atoms: O3_13  and  C3_23 
REMARK       I    between atoms: O3_13  and  C1_30 
REMARK       I    between atoms: C7_20  and  N_27 
REMARK       I    between atoms: C2_24  and  N_27 
ROOT
ATOM      1  C1  ASG d 523      33.344  14.361 -10.395  0.00  0.00     0.151 C 
ATOM      2  C8  ASG d 523      32.136  11.097  -7.016  0.00  0.00    -0.003 C 
ATOM      3  O4  ASG d 523      35.220  16.161  -8.225  0.00  0.00    -0.246 OA
ATOM      4  C6  ASG d 523      34.689  17.827 -10.564  0.00  0.00     0.043 C 
ATOM      5  O5  ASG d 523      34.249  15.457 -10.649  0.00  0.00    -0.349 OA
ATOM      6  O3  ASG d 523      33.234  15.181  -6.754  0.00  0.00    -0.348 OA
ATOM      7  O6  ASG d 523      34.607  17.930 -11.973  0.00  0.00    -0.398 OA
ATOM      8  S   ASG d 523      36.135  17.178  -7.319  0.00  0.00     0.252 S 
ATOM      9  C4  ASG d 523      33.883  16.542  -8.595  0.00  0.00     0.114 C 
ATOM     10  OSB ASG d 523      37.625  16.740  -7.313  0.00  0.00    -0.572 OA
ATOM     11  C7  ASG d 523      33.132  12.040  -7.614  0.00  0.00     0.214 C 
ATOM     12  O7  ASG d 523      34.279  11.904  -7.284  0.00  0.00    -0.274 OA
ATOM     13  OSC ASG d 523      35.597  17.178  -5.996  0.00  0.00    -0.572 OA
ATOM     14  C3  ASG d 523      33.010  15.373  -8.153  0.00  0.00     0.094 C 
ATOM     15  C2  ASG d 523      33.464  14.114  -8.889  0.00  0.00     0.087 C 
ATOM     16  OSA ASG d 523      35.983  18.461  -7.953  0.00  0.00    -0.572 OA
ATOM     17  O1  ASG d 523      33.950  13.271 -11.017  0.00  0.00    -0.369 OA
ATOM     18  N   ASG d 523      32.673  12.968  -8.464  0.00  0.00    -0.349 N 
ATOM     19  C5  ASG d 523      33.787  16.699 -10.102  0.00  0.00     0.090 C 
ATOM     20  H   ASG d 523      32.335  14.523 -10.714  0.00  0.00     0.132 H 
ATOM     21  H   ASG d 523      31.160  11.324  -7.390  0.00  0.00     0.040 H 
ATOM     22  H   ASG d 523      32.143  11.200  -5.951  0.00  0.00     0.040 H 
ATOM     23  H   ASG d 523      32.394  10.093  -7.279  0.00  0.00     0.040 H 
ATOM     24  H   ASG d 523      35.699  17.621 -10.276  0.00  0.00     0.078 H 
ATOM     25  H   ASG d 523      34.379  18.747 -10.114  0.00  0.00     0.078 H 
ATOM     26  H   ASG d 523      34.890  17.094 -12.375  0.00  0.00     0.209 HD
ATOM     27  H   ASG d 523      33.591  17.469  -8.149  0.00  0.00     0.093 H 
ATOM     28  H   ASG d 523      31.978  15.565  -8.361  0.00  0.00     0.091 H 
ATOM     29  H   ASG d 523      34.485  13.894  -8.657  0.00  0.00     0.084 H 
ATOM     30  H   ASG d 523      34.858  13.174 -10.689  0.00  0.00     0.212 HD
ATOM     31  H   ASG d 523      31.759  12.872  -8.817  0.00  0.00     0.163 HD
ATOM     32  H   ASG d 523      32.789  16.928 -10.414  0.00  0.00     0.090 H 
ATOM     33  C6  GCD d 525      31.014  18.678  -5.667  0.00  0.00     0.233 C 
ATOM     34  C5  GCD d 525      31.557  17.348  -5.347  0.00  0.00     0.147 C 
ATOM     35  O6B GCD d 525      30.397  18.876  -6.735  0.00  0.00    -0.642 OA
ATOM     36  O2  GCD d 525      31.041  14.432  -3.924  0.00  0.00    -0.388 OA
ATOM     37  C3  GCD d 525      32.998  15.872  -3.884  0.00  0.00     0.084 C 
ATOM     38  O3  GCD d 525      34.399  15.804  -4.136  0.00  0.00    -0.389 OA
ATOM     39  O6A GCD d 525      31.188  19.580  -4.827  0.00  0.00    -0.642 OA
ATOM     40  C2  GCD d 525      32.280  14.702  -4.580  0.00  0.00     0.111 C 
ATOM     41  O5  GCD d 525      31.168  16.182  -6.130  0.00  0.00    -0.311 OA
ATOM     42  C4  GCD d 525      32.408  17.202  -4.321  0.00  0.00    -0.034 C 
ATOM     43  C1  GCD d 525      31.987  15.015  -6.052  0.00  0.00     0.165 C 
ATOM     44  H   GCD d 525      31.207  14.231  -2.990  0.00  0.00     0.210 HD
ATOM     45  H   GCD d 525      32.849  15.793  -2.827  0.00  0.00     0.093 H 
ATOM     46  H   GCD d 525      34.560  15.874  -5.090  0.00  0.00     0.210 HD
ATOM     47  H   GCD d 525      32.928  13.853  -4.527  0.00  0.00     0.095 H 
ATOM     48  H   GCD d 525      32.679  18.046  -3.794  0.00  0.00     0.085 H 
ATOM     49  H   GCD d 525      31.454  14.211  -6.514  0.00  0.00     0.134 H 
ENDROOT
TORSDOF 12
ENDMDL
MODEL 52
REMARK VINA RESULT:      -6.1      3.051      5.616
REMARK  0 active torsions:
REMARK  status: ('A' for Active; 'I' for Inactive)
REMARK       I    between atoms: C1_1  and  O1_26 
REMARK       I    between atoms: C6_2  and  C5_3 
REMARK       I    between atoms: C8_4  and  C7_20 
REMARK       I    between atoms: O2_6  and  C2_15 
REMARK       I    between atoms: O4_7  and  C4_17 
REMARK       I    between atoms: O4_7  and  S_16 
REMARK       I    between atoms: C3_8  and  O3_9 
REMARK       I    between atoms: C6_10  and  C5_28 
REMARK       I    between atoms: C6_10  and  O6_14 
REMARK       I    between atoms: O3_13  and  C3_23 
REMARK       I    between atoms: O3_13  and  C1_30 
REMARK       I    between atoms: C7_20  and  N_27 
REMARK       I    between atoms: C2_24  and  N_27 
ROOT
ATOM      1  C1  ASG d 523      33.390  12.113  -9.073  0.00  0.00     0.151 C 
ATOM      2  C8  ASG d 523      35.367  16.445  -8.150  0.00  0.00    -0.003 C 
ATOM      3  O4  ASG d 523      30.640  12.784  -7.213  0.00  0.00    -0.246 OA
ATOM      4  C6  ASG d 523      30.746   9.902  -7.668  0.00  0.00     0.043 C 
ATOM      5  O5  ASG d 523      32.153  11.377  -8.958  0.00  0.00    -0.349 OA
ATOM      6  O3  ASG d 523      32.623  14.056  -5.979  0.00  0.00    -0.348 OA
ATOM      7  O6  ASG d 523      30.976   8.835  -8.568  0.00  0.00    -0.398 OA
ATOM      8  S   ASG d 523      29.263  12.911  -6.331  0.00  0.00     0.252 S 
ATOM      9  C4  ASG d 523      31.729  11.981  -6.725  0.00  0.00     0.114 C 
ATOM     10  OSB ASG d 523      28.114  13.534  -7.169  0.00  0.00    -0.572 OA
ATOM     11  C7  ASG d 523      34.163  15.594  -8.403  0.00  0.00     0.214 C 
ATOM     12  O7  ASG d 523      33.147  16.161  -8.700  0.00  0.00    -0.274 OA
ATOM     13  OSC ASG d 523      29.556  13.715  -5.188  0.00  0.00    -0.572 OA
ATOM     14  C3  ASG d 523      32.941  12.905  -6.764  0.00  0.00     0.094 C 
ATOM     15  C2  ASG d 523      33.171  13.355  -8.205  0.00  0.00     0.087 C 
ATOM     16  OSA ASG d 523      28.947  11.557  -5.960  0.00  0.00    -0.572 OA
ATOM     17  O1  ASG d 523      33.396  12.558 -10.395  0.00  0.00    -0.369 OA
ATOM     18  N   ASG d 523      34.303  14.268  -8.274  0.00  0.00    -0.349 N 
ATOM     19  C5  ASG d 523      31.964  10.806  -7.657  0.00  0.00     0.090 C 
ATOM     20  H   ASG d 523      34.269  11.565  -8.808  0.00  0.00     0.132 H 
ATOM     21  H   ASG d 523      36.199  15.821  -7.897  0.00  0.00     0.040 H 
ATOM     22  H   ASG d 523      35.166  17.116  -7.342  0.00  0.00     0.040 H 
ATOM     23  H   ASG d 523      35.598  17.006  -9.031  0.00  0.00     0.040 H 
ATOM     24  H   ASG d 523      29.888  10.459  -7.982  0.00  0.00     0.078 H 
ATOM     25  H   ASG d 523      30.571   9.516  -6.685  0.00  0.00     0.078 H 
ATOM     26  H   ASG d 523      31.134   9.190  -9.457  0.00  0.00     0.209 HD
ATOM     27  H   ASG d 523      31.536  11.591  -5.748  0.00  0.00     0.093 H 
ATOM     28  H   ASG d 523      33.813  12.408  -6.393  0.00  0.00     0.091 H 
ATOM     29  H   ASG d 523      32.318  13.885  -8.571  0.00  0.00     0.084 H 
ATOM     30  H   ASG d 523      32.577  13.046 -10.575  0.00  0.00     0.212 HD
ATOM     31  H   ASG d 523      35.212  13.894  -8.222  0.00  0.00     0.163 HD
ATOM     32  H   ASG d 523      32.805  10.219  -7.351  0.00  0.00     0.090 H 
ATOM     33  C6  GCD d 525      32.978  11.936  -2.275  0.00  0.00     0.233 C 
ATOM     34  C5  GCD d 525      33.008  13.188  -3.049  0.00  0.00     0.147 C 
ATOM     35  O6B GCD d 525      33.600  10.927  -2.669  0.00  0.00    -0.642 OA
ATOM     36  O2  GCD d 525      34.498  16.069  -3.569  0.00  0.00    -0.388 OA
ATOM     37  C3  GCD d 525      32.134  15.526  -3.455  0.00  0.00     0.084 C 
ATOM     38  O3  GCD d 525      30.943  15.696  -4.221  0.00  0.00    -0.389 OA
ATOM     39  O6A GCD d 525      32.322  11.938  -1.217  0.00  0.00    -0.642 OA
ATOM     40  C2  GCD d 525      33.369  15.692  -4.356  0.00  0.00     0.111 C 
ATOM     41  O5  GCD d 525      33.961  13.362  -4.139  0.00  0.00    -0.311 OA
ATOM     42  C4  GCD d 525      32.162  14.183  -2.745  0.00  0.00    -0.034 C 
ATOM     43  C1  GCD d 525      33.709  14.392  -5.094  0.00  0.00     0.165 C 
ATOM     44  H   GCD d 525      34.302  16.892  -3.095  0.00  0.00     0.210 HD
ATOM     45  H   GCD d 525      32.149  16.282  -2.699  0.00  0.00     0.093 H 
ATOM     46  H   GCD d 525      30.906  15.019  -4.915  0.00  0.00     0.210 HD
ATOM     47  H   GCD d 525      33.140  16.450  -5.075  0.00  0.00     0.095 H 
ATOM     48  H   GCD d 525      31.487  14.027  -1.980  0.00  0.00     0.085 H 
ATOM     49  H   GCD d 525      34.592  14.510  -5.687  0.00  0.00     0.134 H 
ENDROOT
TORSDOF 12
ENDMDL
MODEL 53
REMARK VINA RESULT:      -6.1      2.978      4.586
REMARK  0 active torsions:
REMARK  status: ('A' for Active; 'I' for Inactive)
REMARK       I    between atoms: C1_1  and  O1_26 
REMARK       I    between atoms: C6_2  and  C5_3 
REMARK       I    between atoms: C8_4  and  C7_20 
REMARK       I    between atoms: O2_6  and  C2_15 
REMARK       I    between atoms: O4_7  and  C4_17 
REMARK       I    between atoms: O4_7  and  S_16 
REMARK       I    between atoms: C3_8  and  O3_9 
REMARK       I    between atoms: C6_10  and  C5_28 
REMARK       I    between atoms: C6_10  and  O6_14 
REMARK       I    between atoms: O3_13  and  C3_23 
REMARK       I    between atoms: O3_13  and  C1_30 
REMARK       I    between atoms: C7_20  and  N_27 
REMARK       I    between atoms: C2_24  and  N_27 
ROOT
ATOM      1  C1  ASG d 523      33.917  11.195  -4.709  0.00  0.00     0.151 C 
ATOM      2  C8  ASG d 523      33.390  10.594  -9.493  0.00  0.00    -0.003 C 
ATOM      3  O4  ASG d 523      31.561  13.626  -4.586  0.00  0.00    -0.246 OA
ATOM      4  C6  ASG d 523      33.117  13.745  -2.118  0.00  0.00     0.043 C 
ATOM      5  O5  ASG d 523      33.300  11.823  -3.564  0.00  0.00    -0.349 OA
ATOM      6  O3  ASG d 523      32.721  13.924  -6.960  0.00  0.00    -0.348 OA
ATOM      7  O6  ASG d 523      33.739  13.049  -1.054  0.00  0.00    -0.398 OA
ATOM      8  S   ASG d 523      30.485  14.839  -4.335  0.00  0.00     0.252 S 
ATOM      9  C4  ASG d 523      32.971  13.912  -4.593  0.00  0.00     0.114 C 
ATOM     10  OSB ASG d 523      29.067  14.280  -4.036  0.00  0.00    -0.572 OA
ATOM     11  C7  ASG d 523      32.805  10.892  -8.149  0.00  0.00     0.214 C 
ATOM     12  O7  ASG d 523      31.611  10.809  -8.044  0.00  0.00    -0.274 OA
ATOM     13  OSC ASG d 523      30.477  15.655  -5.506  0.00  0.00    -0.572 OA
ATOM     14  C3  ASG d 523      33.479  13.326  -5.905  0.00  0.00     0.094 C 
ATOM     15  C2  ASG d 523      33.207  11.823  -5.911  0.00  0.00     0.087 C 
ATOM     16  OSA ASG d 523      31.003  15.550  -3.197  0.00  0.00    -0.572 OA
ATOM     17  O1  ASG d 523      33.479   9.873  -4.646  0.00  0.00    -0.369 OA
ATOM     18  N   ASG d 523      33.649  11.235  -7.168  0.00  0.00    -0.349 N 
ATOM     19  C5  ASG d 523      33.649  13.207  -3.433  0.00  0.00     0.090 C 
ATOM     20  H   ASG d 523      34.982  11.287  -4.756  0.00  0.00     0.132 H 
ATOM     21  H   ASG d 523      34.454  10.704  -9.451  0.00  0.00     0.040 H 
ATOM     22  H   ASG d 523      32.990  11.275 -10.215  0.00  0.00     0.040 H 
ATOM     23  H   ASG d 523      33.146   9.592  -9.774  0.00  0.00     0.040 H 
ATOM     24  H   ASG d 523      32.058  13.600  -2.072  0.00  0.00     0.078 H 
ATOM     25  H   ASG d 523      33.330  14.791  -2.040  0.00  0.00     0.078 H 
ATOM     26  H   ASG d 523      33.542  12.102  -1.129  0.00  0.00     0.209 HD
ATOM     27  H   ASG d 523      33.170  14.959  -4.503  0.00  0.00     0.093 H 
ATOM     28  H   ASG d 523      34.527  13.508  -6.026  0.00  0.00     0.091 H 
ATOM     29  H   ASG d 523      32.157  11.634  -5.829  0.00  0.00     0.084 H 
ATOM     30  H   ASG d 523      32.510   9.854  -4.605  0.00  0.00     0.212 HD
ATOM     31  H   ASG d 523      34.612  11.083  -7.302  0.00  0.00     0.163 HD
ATOM     32  H   ASG d 523      34.709  13.355  -3.443  0.00  0.00     0.090 H 
ATOM     33  C6  GCD d 525      34.722  17.693  -6.595  0.00  0.00     0.233 C 
ATOM     34  C5  GCD d 525      33.959  16.712  -7.384  0.00  0.00     0.147 C 
ATOM     35  O6B GCD d 525      35.717  17.338  -5.927  0.00  0.00    -0.642 OA
ATOM     36  O2  GCD d 525      33.579  15.202 -10.277  0.00  0.00    -0.388 OA
ATOM     37  C3  GCD d 525      31.921  16.131  -8.764  0.00  0.00     0.084 C 
ATOM     38  O3  GCD d 525      30.722  15.743  -8.098  0.00  0.00    -0.389 OA
ATOM     39  O6A GCD d 525      34.340  18.876  -6.636  0.00  0.00    -0.642 OA
ATOM     40  C2  GCD d 525      32.719  14.885  -9.183  0.00  0.00     0.111 C 
ATOM     41  O5  GCD d 525      34.489  15.374  -7.616  0.00  0.00    -0.311 OA
ATOM     42  C4  GCD d 525      32.771  17.052  -7.906  0.00  0.00    -0.034 C 
ATOM     43  C1  GCD d 525      33.581  14.354  -8.032  0.00  0.00     0.165 C 
ATOM     44  H   GCD d 525      33.049  15.540 -11.017  0.00  0.00     0.210 HD
ATOM     45  H   GCD d 525      31.647  16.681  -9.640  0.00  0.00     0.093 H 
ATOM     46  H   GCD d 525      30.944  15.242  -7.297  0.00  0.00     0.210 HD
ATOM     47  H   GCD d 525      32.012  14.132  -9.464  0.00  0.00     0.095 H 
ATOM     48  H   GCD d 525      32.413  18.000  -7.713  0.00  0.00     0.085 H 
ATOM     49  H   GCD d 525      34.161  13.511  -8.347  0.00  0.00     0.134 H 
ENDROOT
TORSDOF 12
ENDMDL
MODEL 54
REMARK VINA RESULT:      -6.1      2.498      6.392
REMARK  0 active torsions:
REMARK  status: ('A' for Active; 'I' for Inactive)
REMARK       I    between atoms: C1_1  and  O1_26 
REMARK       I    between atoms: C6_2  and  C5_3 
REMARK       I    between atoms: C8_4  and  C7_20 
REMARK       I    between atoms: O2_6  and  C2_15 
REMARK       I    between atoms: O4_7  and  C4_17 
REMARK       I    between atoms: O4_7  and  S_16 
REMARK       I    between atoms: C3_8  and  O3_9 
REMARK       I    between atoms: C6_10  and  C5_28 
REMARK       I    between atoms: C6_10  and  O6_14 
REMARK       I    between atoms: O3_13  and  C3_23 
REMARK       I    between atoms: O3_13  and  C1_30 
REMARK       I    between atoms: C7_20  and  N_27 
REMARK       I    between atoms: C2_24  and  N_27 
ROOT
ATOM      1  C1  ASG d 523      32.674  15.306  -5.377  0.00  0.00     0.151 C 
ATOM      2  C8  ASG d 523      34.877  13.178  -1.615  0.00  0.00    -0.003 C 
ATOM      3  O4  ASG d 523      29.746  13.712  -4.779  0.00  0.00    -0.246 OA
ATOM      4  C6  ASG d 523      29.655  14.791  -7.491  0.00  0.00     0.043 C 
ATOM      5  O5  ASG d 523      31.372  15.521  -5.962  0.00  0.00    -0.349 OA
ATOM      6  O3  ASG d 523      31.624  11.976  -4.051  0.00  0.00    -0.348 OA
ATOM      7  O6  ASG d 523      29.921  15.872  -8.364  0.00  0.00    -0.398 OA
ATOM      8  S   ASG d 523      28.267  13.010  -4.673  0.00  0.00     0.252 S 
ATOM      9  C4  ASG d 523      30.669  13.283  -5.795  0.00  0.00     0.114 C 
ATOM     10  OSB ASG d 523      27.322  13.826  -3.750  0.00  0.00    -0.572 OA
ATOM     11  C7  ASG d 523      33.652  13.770  -2.238  0.00  0.00     0.214 C 
ATOM     12  O7  ASG d 523      32.750  14.059  -1.500  0.00  0.00    -0.274 OA
ATOM     13  OSC ASG d 523      28.455  11.686  -4.171  0.00  0.00    -0.572 OA
ATOM     14  C3  ASG d 523      31.952  12.954  -5.041  0.00  0.00     0.094 C 
ATOM     15  C2  ASG d 523      32.441  14.214  -4.329  0.00  0.00     0.087 C 
ATOM     16  OSA ASG d 523      27.776  12.999  -6.025  0.00  0.00    -0.572 OA
ATOM     17  O1  ASG d 523      32.924  16.479  -4.667  0.00  0.00    -0.369 OA
ATOM     18  N   ASG d 523      33.649  13.927  -3.568  0.00  0.00    -0.349 N 
ATOM     19  C5  ASG d 523      30.935  14.418  -6.767  0.00  0.00     0.090 C 
ATOM     20  H   ASG d 523      33.449  15.060  -6.073  0.00  0.00     0.132 H 
ATOM     21  H   ASG d 523      35.599  12.968  -2.376  0.00  0.00     0.040 H 
ATOM     22  H   ASG d 523      34.617  12.271  -1.110  0.00  0.00     0.040 H 
ATOM     23  H   ASG d 523      35.290  13.871  -0.913  0.00  0.00     0.040 H 
ATOM     24  H   ASG d 523      28.910  15.079  -6.779  0.00  0.00     0.078 H 
ATOM     25  H   ASG d 523      29.297  13.952  -8.051  0.00  0.00     0.078 H 
ATOM     26  H   ASG d 523      30.245  16.629  -7.852  0.00  0.00     0.209 HD
ATOM     27  H   ASG d 523      30.294  12.453  -6.356  0.00  0.00     0.093 H 
ATOM     28  H   ASG d 523      32.708  12.596  -5.709  0.00  0.00     0.091 H 
ATOM     29  H   ASG d 523      31.706  14.558  -3.632  0.00  0.00     0.084 H 
ATOM     30  H   ASG d 523      32.191  16.649  -4.055  0.00  0.00     0.212 HD
ATOM     31  H   ASG d 523      34.501  13.845  -4.054  0.00  0.00     0.163 HD
ATOM     32  H   ASG d 523      31.662  14.147  -7.505  0.00  0.00     0.090 H 
ATOM     33  C6  GCD d 525      31.212   8.835  -6.932  0.00  0.00     0.233 C 
ATOM     34  C5  GCD d 525      31.475   9.295  -5.559  0.00  0.00     0.147 C 
ATOM     35  O6B GCD d 525      31.792   9.365  -7.905  0.00  0.00    -0.642 OA
ATOM     36  O2  GCD d 525      33.286   8.952  -2.839  0.00  0.00    -0.388 OA
ATOM     37  C3  GCD d 525      30.892   9.270  -3.098  0.00  0.00     0.084 C 
ATOM     38  O3  GCD d 525      29.853  10.125  -2.625  0.00  0.00    -0.389 OA
ATOM     39  O6A GCD d 525      30.405   7.899  -7.073  0.00  0.00    -0.642 OA
ATOM     40  C2  GCD d 525      32.261   9.943  -2.899  0.00  0.00     0.111 C 
ATOM     41  O5  GCD d 525      32.596  10.185  -5.278  0.00  0.00    -0.311 OA
ATOM     42  C4  GCD d 525      30.688   8.886  -4.554  0.00  0.00    -0.034 C 
ATOM     43  C1  GCD d 525      32.588  10.906  -4.046  0.00  0.00     0.165 C 
ATOM     44  H   GCD d 525      33.095   8.333  -2.117  0.00  0.00     0.210 HD
ATOM     45  H   GCD d 525      30.860   8.367  -2.526  0.00  0.00     0.093 H 
ATOM     46  H   GCD d 525      29.861  10.953  -3.130  0.00  0.00     0.210 HD
ATOM     47  H   GCD d 525      32.215  10.495  -1.984  0.00  0.00     0.095 H 
ATOM     48  H   GCD d 525      29.893   8.270  -4.784  0.00  0.00     0.085 H 
ATOM     49  H   GCD d 525      33.559  11.338  -3.916  0.00  0.00     0.134 H 
ENDROOT
TORSDOF 12
ENDMDL
MODEL 55
REMARK VINA RESULT:      -6.1      2.970      6.583
REMARK  0 active torsions:
REMARK  status: ('A' for Active; 'I' for Inactive)
REMARK       I    between atoms: C1_1  and  O1_26 
REMARK       I    between atoms: C6_2  and  C5_3 
REMARK       I    between atoms: C8_4  and  C7_20 
REMARK       I    between atoms: O2_6  and  C2_15 
REMARK       I    between atoms: O4_7  and  C4_17 
REMARK       I    between atoms: O4_7  and  S_16 
REMARK       I    between atoms: C3_8  and  O3_9 
REMARK       I    between atoms: C6_10  and  C5_28 
REMARK       I    between atoms: C6_10  and  O6_14 
REMARK       I    between atoms: O3_13  and  C3_23 
REMARK       I    between atoms: O3_13  and  C1_30 
REMARK       I    between atoms: C7_20  and  N_27 
REMARK       I    between atoms: C2_24  and  N_27 
ROOT
ATOM      1  C1  ASG d 523      34.518  16.877  -4.726  0.00  0.00     0.151 C 
ATOM      2  C8  ASG d 523      34.526  12.822  -2.063  0.00  0.00    -0.003 C 
ATOM      3  O4  ASG d 523      31.314  16.416  -5.723  0.00  0.00    -0.246 OA
ATOM      4  C6  ASG d 523      32.540  18.387  -7.494  0.00  0.00     0.043 C 
ATOM      5  O5  ASG d 523      33.635  17.774  -5.434  0.00  0.00    -0.349 OA
ATOM      6  O3  ASG d 523      32.314  13.962  -5.493  0.00  0.00    -0.348 OA
ATOM      7  O6  ASG d 523      33.364  19.529  -7.634  0.00  0.00    -0.398 OA
ATOM      8  S   ASG d 523      29.796  16.343  -6.341  0.00  0.00     0.252 S 
ATOM      9  C4  ASG d 523      32.440  16.088  -6.556  0.00  0.00     0.114 C 
ATOM     10  OSB ASG d 523      28.774  17.042  -5.403  0.00  0.00    -0.572 OA
ATOM     11  C7  ASG d 523      33.813  14.023  -2.600  0.00  0.00     0.214 C 
ATOM     12  O7  ASG d 523      32.783  14.330  -2.064  0.00  0.00    -0.274 OA
ATOM     13  OSC ASG d 523      29.469  14.964  -6.517  0.00  0.00    -0.572 OA
ATOM     14  C3  ASG d 523      33.215  15.038  -5.766  0.00  0.00     0.094 C 
ATOM     15  C2  ASG d 523      33.653  15.648  -4.436  0.00  0.00     0.087 C 
ATOM     16  OSA ASG d 523      29.886  17.031  -7.601  0.00  0.00    -0.572 OA
ATOM     17  O1  ASG d 523      34.725  17.505  -3.499  0.00  0.00    -0.369 OA
ATOM     18  N   ASG d 523      34.367  14.660  -3.640  0.00  0.00    -0.349 N 
ATOM     19  C5  ASG d 523      33.314  17.313  -6.753  0.00  0.00     0.090 C 
ATOM     20  H   ASG d 523      35.427  16.639  -5.238  0.00  0.00     0.132 H 
ATOM     21  H   ASG d 523      35.423  12.659  -2.625  0.00  0.00     0.040 H 
ATOM     22  H   ASG d 523      33.893  11.964  -2.146  0.00  0.00     0.040 H 
ATOM     23  H   ASG d 523      34.775  12.986  -1.036  0.00  0.00     0.040 H 
ATOM     24  H   ASG d 523      31.661  18.643  -6.941  0.00  0.00     0.078 H 
ATOM     25  H   ASG d 523      32.253  18.026  -8.460  0.00  0.00     0.078 H 
ATOM     26  H   ASG d 523      33.621  19.852  -6.757  0.00  0.00     0.209 HD
ATOM     27  H   ASG d 523      32.139  15.741  -7.521  0.00  0.00     0.093 H 
ATOM     28  H   ASG d 523      34.070  14.702  -6.313  0.00  0.00     0.091 H 
ATOM     29  H   ASG d 523      32.801  15.953  -3.867  0.00  0.00     0.084 H 
ATOM     30  H   ASG d 523      33.869  17.695  -3.084  0.00  0.00     0.212 HD
ATOM     31  H   ASG d 523      35.299  14.451  -3.877  0.00  0.00     0.163 HD
ATOM     32  H   ASG d 523      34.191  17.088  -7.323  0.00  0.00     0.090 H 
ATOM     33  C6  GCD d 525      32.373  12.555  -9.537  0.00  0.00     0.233 C 
ATOM     34  C5  GCD d 525      32.171  12.325  -8.097  0.00  0.00     0.147 C 
ATOM     35  O6B GCD d 525      33.391  13.150  -9.951  0.00  0.00    -0.642 OA
ATOM     36  O2  GCD d 525      32.641  10.320  -5.537  0.00  0.00    -0.388 OA
ATOM     37  C3  GCD d 525      30.679  11.594  -6.191  0.00  0.00     0.084 C 
ATOM     38  O3  GCD d 525      29.759  12.531  -5.635  0.00  0.00    -0.389 OA
ATOM     39  O6A GCD d 525      31.498  12.124 -10.310  0.00  0.00    -0.642 OA
ATOM     40  C2  GCD d 525      31.972  11.569  -5.358  0.00  0.00     0.111 C 
ATOM     41  O5  GCD d 525      33.260  12.545  -7.152  0.00  0.00    -0.311 OA
ATOM     42  C4  GCD d 525      30.982  11.897  -7.648  0.00  0.00    -0.034 C 
ATOM     43  C1  GCD d 525      32.931  12.691  -5.771  0.00  0.00     0.165 C 
ATOM     44  H   GCD d 525      32.048   9.596  -5.280  0.00  0.00     0.210 HD
ATOM     45  H   GCD d 525      30.223  10.627  -6.158  0.00  0.00     0.093 H 
ATOM     46  H   GCD d 525      30.149  13.418  -5.653  0.00  0.00     0.210 HD
ATOM     47  H   GCD d 525      31.696  11.706  -4.334  0.00  0.00     0.095 H 
ATOM     48  H   GCD d 525      30.225  11.766  -8.336  0.00  0.00     0.085 H 
ATOM     49  H   GCD d 525      33.842  12.639  -5.212  0.00  0.00     0.134 H 
ENDROOT
TORSDOF 12
ENDMDL
MODEL 56
REMARK VINA RESULT:      -6.1      2.355      5.130
REMARK  0 active torsions:
REMARK  status: ('A' for Active; 'I' for Inactive)
REMARK       I    between atoms: C1_1  and  O1_26 
REMARK       I    between atoms: C6_2  and  C5_3 
REMARK       I    between atoms: C8_4  and  C7_20 
REMARK       I    between atoms: O2_6  and  C2_15 
REMARK       I    between atoms: O4_7  and  C4_17 
REMARK       I    between atoms: O4_7  and  S_16 
REMARK       I    between atoms: C3_8  and  O3_9 
REMARK       I    between atoms: C6_10  and  C5_28 
REMARK       I    between atoms: C6_10  and  O6_14 
REMARK       I    between atoms: O3_13  and  C3_23 
REMARK       I    between atoms: O3_13  and  C1_30 
REMARK       I    between atoms: C7_20  and  N_27 
REMARK       I    between atoms: C2_24  and  N_27 
ROOT
ATOM      1  C1  ASG d 523      30.773  10.207  -3.644  0.00  0.00     0.151 C 
ATOM      2  C8  ASG d 523      35.375  11.600  -3.000  0.00  0.00    -0.003 C 
ATOM      3  O4  ASG d 523      30.358  12.237  -6.323  0.00  0.00    -0.246 OA
ATOM      4  C6  ASG d 523      27.716  11.417  -5.388  0.00  0.00     0.043 C 
ATOM      5  O5  ASG d 523      29.684  10.273  -4.589  0.00  0.00    -0.349 OA
ATOM      6  O3  ASG d 523      32.034  13.550  -4.730  0.00  0.00    -0.348 OA
ATOM      7  O6  ASG d 523      26.877  10.380  -4.914  0.00  0.00    -0.398 OA
ATOM      8  S   ASG d 523      29.956  13.178  -7.605  0.00  0.00     0.252 S 
ATOM      9  C4  ASG d 523      29.880  12.579  -5.010  0.00  0.00     0.114 C 
ATOM     10  OSB ASG d 523      30.283  12.468  -8.947  0.00  0.00    -0.572 OA
ATOM     11  C7  ASG d 523      34.227  11.285  -3.907  0.00  0.00     0.214 C 
ATOM     12  O7  ASG d 523      34.484  11.100  -5.066  0.00  0.00    -0.274 OA
ATOM     13  OSC ASG d 523      30.681  14.403  -7.484  0.00  0.00    -0.572 OA
ATOM     14  C3  ASG d 523      31.130  12.613  -4.138  0.00  0.00     0.094 C 
ATOM     15  C2  ASG d 523      31.784  11.233  -4.161  0.00  0.00     0.087 C 
ATOM     16  OSA ASG d 523      28.539  13.386  -7.470  0.00  0.00    -0.572 OA
ATOM     17  O1  ASG d 523      31.341   8.954  -3.869  0.00  0.00    -0.369 OA
ATOM     18  N   ASG d 523      33.004  11.240  -3.365  0.00  0.00    -0.349 N 
ATOM     19  C5  ASG d 523      28.944  11.497  -4.501  0.00  0.00     0.090 C 
ATOM     20  H   ASG d 523      30.497  10.369  -2.623  0.00  0.00     0.132 H 
ATOM     21  H   ASG d 523      35.013  11.741  -2.003  0.00  0.00     0.040 H 
ATOM     22  H   ASG d 523      35.858  12.494  -3.333  0.00  0.00     0.040 H 
ATOM     23  H   ASG d 523      36.073  10.790  -3.015  0.00  0.00     0.040 H 
ATOM     24  H   ASG d 523      28.012  11.207  -6.395  0.00  0.00     0.078 H 
ATOM     25  H   ASG d 523      27.190  12.348  -5.366  0.00  0.00     0.078 H 
ATOM     26  H   ASG d 523      27.359   9.538  -4.937  0.00  0.00     0.209 HD
ATOM     27  H   ASG d 523      29.345  13.505  -5.004  0.00  0.00     0.093 H 
ATOM     28  H   ASG d 523      30.888  12.886  -3.132  0.00  0.00     0.091 H 
ATOM     29  H   ASG d 523      32.063  10.969  -5.159  0.00  0.00     0.084 H 
ATOM     30  H   ASG d 523      31.570   8.867  -4.808  0.00  0.00     0.212 HD
ATOM     31  H   ASG d 523      32.924  11.211  -2.385  0.00  0.00     0.163 HD
ATOM     32  H   ASG d 523      28.614  11.695  -3.502  0.00  0.00     0.090 H 
ATOM     33  C6  GCD d 525      29.734  16.939  -3.481  0.00  0.00     0.233 C 
ATOM     34  C5  GCD d 525      31.011  16.329  -3.886  0.00  0.00     0.147 C 
ATOM     35  O6B GCD d 525      29.014  16.397  -2.615  0.00  0.00    -0.642 OA
ATOM     36  O2  GCD d 525      34.250  16.125  -3.375  0.00  0.00    -0.388 OA
ATOM     37  C3  GCD d 525      32.996  16.256  -5.452  0.00  0.00     0.084 C 
ATOM     38  O3  GCD d 525      32.874  15.562  -6.691  0.00  0.00    -0.389 OA
ATOM     39  O6A GCD d 525      29.417  18.011  -4.027  0.00  0.00    -0.642 OA
ATOM     40  C2  GCD d 525      33.632  15.338  -4.394  0.00  0.00     0.111 C 
ATOM     41  O5  GCD d 525      31.588  15.237  -3.113  0.00  0.00    -0.311 OA
ATOM     42  C4  GCD d 525      31.658  16.788  -4.968  0.00  0.00    -0.034 C 
ATOM     43  C1  GCD d 525      32.589  14.430  -3.734  0.00  0.00     0.165 C 
ATOM     44  H   GCD d 525      34.915  16.707  -3.775  0.00  0.00     0.210 HD
ATOM     45  H   GCD d 525      33.633  17.101  -5.609  0.00  0.00     0.093 H 
ATOM     46  H   GCD d 525      32.299  14.789  -6.574  0.00  0.00     0.210 HD
ATOM     47  H   GCD d 525      34.357  14.730  -4.893  0.00  0.00     0.095 H 
ATOM     48  H   GCD d 525      31.218  17.551  -5.506  0.00  0.00     0.085 H 
ATOM     49  H   GCD d 525      33.037  13.824  -2.973  0.00  0.00     0.134 H 
ENDROOT
TORSDOF 12
ENDMDL
MODEL 57
REMARK VINA RESULT:      -6.1      1.740      1.913
REMARK  0 active torsions:
REMARK  status: ('A' for Active; 'I' for Inactive)
REMARK       I    between atoms: C1_1  and  O1_26 
REMARK       I    between atoms: C6_2  and  C5_3 
REMARK       I    between atoms: C8_4  and  C7_20 
REMARK       I    between atoms: O2_6  and  C2_15 
REMARK       I    between atoms: O4_7  and  C4_17 
REMARK       I    between atoms: O4_7  and  S_16 
REMARK       I    between atoms: C3_8  and  O3_9 
REMARK       I    between atoms: C6_10  and  C5_28 
REMARK       I    between atoms: C6_10  and  O6_14 
REMARK       I    between atoms: O3_13  and  C3_23 
REMARK       I    between atoms: O3_13  and  C1_30 
REMARK       I    between atoms: C7_20  and  N_27 
REMARK       I    between atoms: C2_24  and  N_27 
ROOT
ATOM      1  C1  ASG d 523      30.447  10.017  -6.831  0.00  0.00     0.151 C 
ATOM      2  C8  ASG d 523      27.077  12.727  -4.634  0.00  0.00    -0.003 C 
ATOM      3  O4  ASG d 523      32.791  10.741  -4.497  0.00  0.00    -0.246 OA
ATOM      4  C6  ASG d 523      34.150   9.641  -6.836  0.00  0.00     0.043 C 
ATOM      5  O5  ASG d 523      31.755   9.440  -6.629  0.00  0.00    -0.349 OA
ATOM      6  O3  ASG d 523      31.308  12.941  -4.674  0.00  0.00    -0.348 OA
ATOM      7  O6  ASG d 523      34.180   8.664  -7.859  0.00  0.00    -0.398 OA
ATOM      8  S   ASG d 523      34.063  11.006  -3.494  0.00  0.00     0.252 S 
ATOM      9  C4  ASG d 523      32.744  11.396  -5.776  0.00  0.00     0.114 C 
ATOM     10  OSB ASG d 523      34.089   9.972  -2.335  0.00  0.00    -0.572 OA
ATOM     11  C7  ASG d 523      28.256  11.808  -4.561  0.00  0.00     0.214 C 
ATOM     12  O7  ASG d 523      28.479  11.290  -3.501  0.00  0.00    -0.274 OA
ATOM     13  OSC ASG d 523      33.942  12.336  -2.989  0.00  0.00    -0.572 OA
ATOM     14  C3  ASG d 523      31.381  12.079  -5.813  0.00  0.00     0.094 C 
ATOM     15  C2  ASG d 523      30.294  11.015  -5.681  0.00  0.00     0.087 C 
ATOM     16  OSA ASG d 523      35.221  10.861  -4.334  0.00  0.00    -0.572 OA
ATOM     17  O1  ASG d 523      29.569   8.969  -6.556  0.00  0.00    -0.369 OA
ATOM     18  N   ASG d 523      28.977  11.638  -5.676  0.00  0.00    -0.349 N 
ATOM     19  C5  ASG d 523      32.818  10.365  -6.889  0.00  0.00     0.090 C 
ATOM     20  H   ASG d 523      30.291  10.459  -7.793  0.00  0.00     0.132 H 
ATOM     21  H   ASG d 523      26.990  13.119  -5.626  0.00  0.00     0.040 H 
ATOM     22  H   ASG d 523      27.209  13.533  -3.943  0.00  0.00     0.040 H 
ATOM     23  H   ASG d 523      26.188  12.186  -4.385  0.00  0.00     0.040 H 
ATOM     24  H   ASG d 523      34.264   9.168  -5.883  0.00  0.00     0.078 H 
ATOM     25  H   ASG d 523      34.949  10.339  -6.976  0.00  0.00     0.078 H 
ATOM     26  H   ASG d 523      33.455   8.034  -7.726  0.00  0.00     0.209 HD
ATOM     27  H   ASG d 523      33.554  12.081  -5.909  0.00  0.00     0.093 H 
ATOM     28  H   ASG d 523      31.250  12.624  -6.725  0.00  0.00     0.091 H 
ATOM     29  H   ASG d 523      30.396  10.491  -4.754  0.00  0.00     0.084 H 
ATOM     30  H   ASG d 523      29.758   8.611  -5.675  0.00  0.00     0.212 HD
ATOM     31  H   ASG d 523      28.602  11.947  -6.532  0.00  0.00     0.163 HD
ATOM     32  H   ASG d 523      32.729  10.817  -7.855  0.00  0.00     0.090 H 
ATOM     33  C6  GCD d 525      34.014  15.802  -6.357  0.00  0.00     0.233 C 
ATOM     34  C5  GCD d 525      32.918  15.453  -5.439  0.00  0.00     0.147 C 
ATOM     35  O6B GCD d 525      33.985  15.441  -7.553  0.00  0.00    -0.642 OA
ATOM     36  O2  GCD d 525      30.026  16.325  -4.146  0.00  0.00    -0.388 OA
ATOM     37  C3  GCD d 525      31.985  15.350  -3.091  0.00  0.00     0.084 C 
ATOM     38  O3  GCD d 525      32.331  14.247  -2.257  0.00  0.00    -0.389 OA
ATOM     39  O6A GCD d 525      34.952  16.475  -5.892  0.00  0.00    -0.642 OA
ATOM     40  C2  GCD d 525      30.633  15.087  -3.778  0.00  0.00     0.111 C 
ATOM     41  O5  GCD d 525      31.664  14.915  -5.954  0.00  0.00    -0.311 OA
ATOM     42  C4  GCD d 525      33.064  15.642  -4.120  0.00  0.00    -0.034 C 
ATOM     43  C1  GCD d 525      30.799  14.237  -5.043  0.00  0.00     0.165 C 
ATOM     44  H   GCD d 525      29.912  16.877  -3.357  0.00  0.00     0.210 HD
ATOM     45  H   GCD d 525      31.898  16.217  -2.470  0.00  0.00     0.093 H 
ATOM     46  H   GCD d 525      32.416  13.446  -2.798  0.00  0.00     0.210 HD
ATOM     47  H   GCD d 525      30.019  14.557  -3.081  0.00  0.00     0.095 H 
ATOM     48  H   GCD d 525      33.966  16.009  -3.781  0.00  0.00     0.085 H 
ATOM     49  H   GCD d 525      29.859  14.094  -5.532  0.00  0.00     0.134 H 
ENDROOT
TORSDOF 12
ENDMDL
MODEL 58
REMARK VINA RESULT:      -6.1      2.217      3.725
REMARK  0 active torsions:
REMARK  status: ('A' for Active; 'I' for Inactive)
REMARK       I    between atoms: C1_1  and  O1_26 
REMARK       I    between atoms: C6_2  and  C5_3 
REMARK       I    between atoms: C8_4  and  C7_20 
REMARK       I    between atoms: O2_6  and  C2_15 
REMARK       I    between atoms: O4_7  and  C4_17 
REMARK       I    between atoms: O4_7  and  S_16 
REMARK       I    between atoms: C3_8  and  O3_9 
REMARK       I    between atoms: C6_10  and  C5_28 
REMARK       I    between atoms: C6_10  and  O6_14 
REMARK       I    between atoms: O3_13  and  C3_23 
REMARK       I    between atoms: O3_13  and  C1_30 
REMARK       I    between atoms: C7_20  and  N_27 
REMARK       I    between atoms: C2_24  and  N_27 
ROOT
ATOM      1  C1  ASG d 523      27.887  12.635  -4.414  0.00  0.00     0.151 C 
ATOM      2  C8  ASG d 523      28.591  17.083  -6.217  0.00  0.00    -0.003 C 
ATOM      3  O4  ASG d 523      31.164  12.240  -3.659  0.00  0.00    -0.246 OA
ATOM      4  C6  ASG d 523      29.896   9.610  -3.598  0.00  0.00     0.043 C 
ATOM      5  O5  ASG d 523      28.536  11.602  -3.642  0.00  0.00    -0.349 OA
ATOM      6  O3  ASG d 523      31.151  13.724  -5.865  0.00  0.00    -0.348 OA
ATOM      7  O6  ASG d 523      28.789   8.819  -3.212  0.00  0.00    -0.398 OA
ATOM      8  S   ASG d 523      32.707  11.851  -3.258  0.00  0.00     0.252 S 
ATOM      9  C4  ASG d 523      30.564  11.663  -4.831  0.00  0.00     0.114 C 
ATOM     10  OSB ASG d 523      33.045  12.306  -1.812  0.00  0.00    -0.572 OA
ATOM     11  C7  ASG d 523      28.925  16.016  -5.223  0.00  0.00     0.214 C 
ATOM     12  O7  ASG d 523      29.542  16.353  -4.248  0.00  0.00    -0.274 OA
ATOM     13  OSC ASG d 523      33.569  12.481  -4.207  0.00  0.00    -0.572 OA
ATOM     14  C3  ASG d 523      30.042  12.853  -5.627  0.00  0.00     0.094 C 
ATOM     15  C2  ASG d 523      29.017  13.601  -4.776  0.00  0.00     0.087 C 
ATOM     16  OSA ASG d 523      32.758  10.418  -3.367  0.00  0.00    -0.572 OA
ATOM     17  O1  ASG d 523      27.089  13.301  -3.484  0.00  0.00    -0.369 OA
ATOM     18  N   ASG d 523      28.522  14.768  -5.494  0.00  0.00    -0.349 N 
ATOM     19  C5  ASG d 523      29.399  10.775  -4.433  0.00  0.00     0.090 C 
ATOM     20  H   ASG d 523      27.342  12.287  -5.267  0.00  0.00     0.132 H 
ATOM     21  H   ASG d 523      28.045  16.653  -7.032  0.00  0.00     0.040 H 
ATOM     22  H   ASG d 523      29.494  17.522  -6.586  0.00  0.00     0.040 H 
ATOM     23  H   ASG d 523      27.995  17.835  -5.746  0.00  0.00     0.040 H 
ATOM     24  H   ASG d 523      30.396   9.980  -2.727  0.00  0.00     0.078 H 
ATOM     25  H   ASG d 523      30.583   9.021  -4.169  0.00  0.00     0.078 H 
ATOM     26  H   ASG d 523      28.171   9.358  -2.694  0.00  0.00     0.209 HD
ATOM     27  H   ASG d 523      31.256  11.065  -5.386  0.00  0.00     0.093 H 
ATOM     28  H   ASG d 523      29.592  12.534  -6.544  0.00  0.00     0.091 H 
ATOM     29  H   ASG d 523      29.469  13.957  -3.875  0.00  0.00     0.084 H 
ATOM     30  H   ASG d 523      27.636  13.590  -2.738  0.00  0.00     0.212 HD
ATOM     31  H   ASG d 523      27.861  14.633  -6.211  0.00  0.00     0.163 HD
ATOM     32  H   ASG d 523      28.895  10.373  -5.288  0.00  0.00     0.090 H 
ATOM     33  C6  GCD d 525      32.882  11.124  -8.794  0.00  0.00     0.233 C 
ATOM     34  C5  GCD d 525      32.700  12.462  -8.208  0.00  0.00     0.147 C 
ATOM     35  O6B GCD d 525      31.897  10.394  -9.035  0.00  0.00    -0.642 OA
ATOM     36  O2  GCD d 525      32.258  15.671  -8.756  0.00  0.00    -0.388 OA
ATOM     37  C3  GCD d 525      33.689  14.537  -7.154  0.00  0.00     0.084 C 
ATOM     38  O3  GCD d 525      33.965  14.538  -5.755  0.00  0.00    -0.389 OA
ATOM     39  O6A GCD d 525      34.048  10.767  -9.045  0.00  0.00    -0.642 OA
ATOM     40  C2  GCD d 525      32.313  15.171  -7.420  0.00  0.00     0.111 C 
ATOM     41  O5  GCD d 525      31.375  13.067  -8.140  0.00  0.00    -0.311 OA
ATOM     42  C4  GCD d 525      33.760  13.139  -7.744  0.00  0.00    -0.034 C 
ATOM     43  C1  GCD d 525      31.179  14.156  -7.239  0.00  0.00     0.165 C 
ATOM     44  H   GCD d 525      32.970  16.317  -8.889  0.00  0.00     0.210 HD
ATOM     45  H   GCD d 525      34.443  15.122  -7.638  0.00  0.00     0.093 H 
ATOM     46  H   GCD d 525      33.294  14.012  -5.293  0.00  0.00     0.210 HD
ATOM     47  H   GCD d 525      32.186  15.965  -6.714  0.00  0.00     0.095 H 
ATOM     48  H   GCD d 525      34.684  12.680  -7.789  0.00  0.00     0.085 H 
ATOM     49  H   GCD d 525      30.231  14.599  -7.464  0.00  0.00     0.134 H 
ENDROOT
TORSDOF 12
ENDMDL
MODEL 59
REMARK VINA RESULT:      -6.1      2.479      4.815
REMARK  0 active torsions:
REMARK  status: ('A' for Active; 'I' for Inactive)
REMARK       I    between atoms: C1_1  and  O1_26 
REMARK       I    between atoms: C6_2  and  C5_3 
REMARK       I    between atoms: C8_4  and  C7_20 
REMARK       I    between atoms: O2_6  and  C2_15 
REMARK       I    between atoms: O4_7  and  C4_17 
REMARK       I    between atoms: O4_7  and  S_16 
REMARK       I    between atoms: C3_8  and  O3_9 
REMARK       I    between atoms: C6_10  and  C5_28 
REMARK       I    between atoms: C6_10  and  O6_14 
REMARK       I    between atoms: O3_13  and  C3_23 
REMARK       I    between atoms: O3_13  and  C1_30 
REMARK       I    between atoms: C7_20  and  N_27 
REMARK       I    between atoms: C2_24  and  N_27 
ROOT
ATOM      1  C1  ASG d 523      31.463  10.033  -2.324  0.00  0.00     0.151 C 
ATOM      2  C8  ASG d 523      34.626  13.500  -1.100  0.00  0.00    -0.003 C 
ATOM      3  O4  ASG d 523      31.668  10.776  -5.622  0.00  0.00    -0.246 OA
ATOM      4  C6  ASG d 523      29.283   9.143  -5.207  0.00  0.00     0.043 C 
ATOM      5  O5  ASG d 523      30.942   9.316  -3.464  0.00  0.00    -0.349 OA
ATOM      6  O3  ASG d 523      31.973  13.108  -4.380  0.00  0.00    -0.348 OA
ATOM      7  O6  ASG d 523      28.687   8.024  -4.579  0.00  0.00    -0.398 OA
ATOM      8  S   ASG d 523      31.605  11.013  -7.244  0.00  0.00     0.252 S 
ATOM      9  C4  ASG d 523      30.581  11.222  -4.793  0.00  0.00     0.114 C 
ATOM     10  OSB ASG d 523      32.692  10.180  -7.976  0.00  0.00    -0.572 OA
ATOM     11  C7  ASG d 523      34.157  12.448  -2.054  0.00  0.00     0.214 C 
ATOM     12  O7  ASG d 523      34.941  12.076  -2.884  0.00  0.00    -0.274 OA
ATOM     13  OSC ASG d 523      31.785  12.410  -7.482  0.00  0.00    -0.572 OA
ATOM     14  C3  ASG d 523      31.239  12.076  -3.715  0.00  0.00     0.094 C 
ATOM     15  C2  ASG d 523      32.226  11.210  -2.936  0.00  0.00     0.087 C 
ATOM     16  OSA ASG d 523      30.287  10.577  -7.621  0.00  0.00    -0.572 OA
ATOM     17  O1  ASG d 523      32.428   9.175  -1.798  0.00  0.00    -0.369 OA
ATOM     18  N   ASG d 523      32.900  12.004  -1.918  0.00  0.00    -0.349 N 
ATOM     19  C5  ASG d 523      29.901  10.030  -4.143  0.00  0.00     0.090 C 
ATOM     20  H   ASG d 523      30.729  10.336  -1.606  0.00  0.00     0.132 H 
ATOM     21  H   ASG d 523      33.838  13.740  -0.417  0.00  0.00     0.040 H 
ATOM     22  H   ASG d 523      34.905  14.377  -1.645  0.00  0.00     0.040 H 
ATOM     23  H   ASG d 523      35.471  13.135  -0.555  0.00  0.00     0.040 H 
ATOM     24  H   ASG d 523      30.042   8.814  -5.885  0.00  0.00     0.078 H 
ATOM     25  H   ASG d 523      28.542   9.691  -5.751  0.00  0.00     0.078 H 
ATOM     26  H   ASG d 523      29.363   7.531  -4.088  0.00  0.00     0.209 HD
ATOM     27  H   ASG d 523      29.841  11.757  -5.351  0.00  0.00     0.093 H 
ATOM     28  H   ASG d 523      30.507  12.485  -3.049  0.00  0.00     0.091 H 
ATOM     29  H   ASG d 523      32.983  10.828  -3.588  0.00  0.00     0.084 H 
ATOM     30  H   ASG d 523      33.062   8.936  -2.492  0.00  0.00     0.212 HD
ATOM     31  H   ASG d 523      32.410  12.226  -1.094  0.00  0.00     0.163 HD
ATOM     32  H   ASG d 523      29.121  10.333  -3.475  0.00  0.00     0.090 H 
ATOM     33  C6  GCD d 525      28.437  15.260  -5.476  0.00  0.00     0.233 C 
ATOM     34  C5  GCD d 525      29.880  15.217  -5.189  0.00  0.00     0.147 C 
ATOM     35  O6B GCD d 525      27.616  14.724  -4.701  0.00  0.00    -0.642 OA
ATOM     36  O2  GCD d 525      32.447  16.679  -3.750  0.00  0.00    -0.388 OA
ATOM     37  C3  GCD d 525      32.266  15.616  -5.927  0.00  0.00     0.084 C 
ATOM     38  O3  GCD d 525      32.924  14.619  -6.705  0.00  0.00    -0.389 OA
ATOM     39  O6A GCD d 525      28.080  15.859  -6.507  0.00  0.00    -0.642 OA
ATOM     40  C2  GCD d 525      32.618  15.441  -4.439  0.00  0.00     0.111 C 
ATOM     41  O5  GCD d 525      30.363  14.786  -3.882  0.00  0.00    -0.311 OA
ATOM     42  C4  GCD d 525      30.760  15.588  -6.130  0.00  0.00    -0.034 C 
ATOM     43  C1  GCD d 525      31.729  14.389  -3.768  0.00  0.00     0.165 C 
ATOM     44  H   GCD d 525      33.004  17.358  -4.162  0.00  0.00     0.210 HD
ATOM     45  H   GCD d 525      32.611  16.573  -6.257  0.00  0.00     0.093 H 
ATOM     46  H   GCD d 525      32.627  13.740  -6.424  0.00  0.00     0.210 HD
ATOM     47  H   GCD d 525      33.637  15.119  -4.389  0.00  0.00     0.095 H 
ATOM     48  H   GCD d 525      30.392  15.873  -7.050  0.00  0.00     0.085 H 
ATOM     49  H   GCD d 525      31.957  14.305  -2.726  0.00  0.00     0.134 H 
ENDROOT
TORSDOF 12
ENDMDL
MODEL 60
REMARK VINA RESULT:      -6.1      2.387      4.959
REMARK  0 active torsions:
REMARK  status: ('A' for Active; 'I' for Inactive)
REMARK       I    between atoms: C1_1  and  O1_26 
REMARK       I    between atoms: C6_2  and  C5_3 
REMARK       I    between atoms: C8_4  and  C7_20 
REMARK       I    between atoms: O2_6  and  C2_15 
REMARK       I    between atoms: O4_7  and  C4_17 
REMARK       I    between atoms: O4_7  and  S_16 
REMARK       I    between atoms: C3_8  and  O3_9 
REMARK       I    between atoms: C6_10  and  C5_28 
REMARK       I    between atoms: C6_10  and  O6_14 
REMARK       I    between atoms: O3_13  and  C3_23 
REMARK       I    between atoms: O3_13  and  C1_30 
REMARK       I    between atoms: C7_20  and  N_27 
REMARK       I    between atoms: C2_24  and  N_27 
ROOT
ATOM      1  C1  ASG d 523      33.352  12.838  -7.104  0.00  0.00     0.151 C 
ATOM      2  C8  ASG d 523      30.371  10.739  -3.904  0.00  0.00    -0.003 C 
ATOM      3  O4  ASG d 523      33.301  15.800  -5.462  0.00  0.00    -0.246 OA
ATOM      4  C6  ASG d 523      34.348  16.269  -8.147  0.00  0.00     0.043 C 
ATOM      5  O5  ASG d 523      34.161  14.016  -7.305  0.00  0.00    -0.349 OA
ATOM      6  O3  ASG d 523      30.876  14.776  -5.090  0.00  0.00    -0.348 OA
ATOM      7  O6  ASG d 523      35.195  15.845  -9.198  0.00  0.00    -0.398 OA
ATOM      8  S   ASG d 523      33.370  17.313  -4.832  0.00  0.00     0.252 S 
ATOM      9  C4  ASG d 523      32.510  15.551  -6.637  0.00  0.00     0.114 C 
ATOM     10  OSB ASG d 523      34.517  17.437  -3.791  0.00  0.00    -0.572 OA
ATOM     11  C7  ASG d 523      31.479  11.696  -4.214  0.00  0.00     0.214 C 
ATOM     12  O7  ASG d 523      32.142  12.080  -3.290  0.00  0.00    -0.274 OA
ATOM     13  OSC ASG d 523      32.103  17.587  -4.232  0.00  0.00    -0.572 OA
ATOM     14  C3  ASG d 523      31.605  14.385  -6.256  0.00  0.00     0.094 C 
ATOM     15  C2  ASG d 523      32.477  13.183  -5.896  0.00  0.00     0.087 C 
ATOM     16  OSA ASG d 523      33.615  18.165  -5.965  0.00  0.00    -0.572 OA
ATOM     17  O1  ASG d 523      34.259  11.875  -6.665  0.00  0.00    -0.369 OA
ATOM     18  N   ASG d 523      31.644  12.059  -5.493  0.00  0.00    -0.349 N 
ATOM     19  C5  ASG d 523      33.407  15.135  -7.788  0.00  0.00     0.090 C 
ATOM     20  H   ASG d 523      32.785  12.528  -7.957  0.00  0.00     0.132 H 
ATOM     21  H   ASG d 523      29.862  10.477  -4.808  0.00  0.00     0.040 H 
ATOM     22  H   ASG d 523      29.682  11.199  -3.227  0.00  0.00     0.040 H 
ATOM     23  H   ASG d 523      30.777   9.858  -3.456  0.00  0.00     0.040 H 
ATOM     24  H   ASG d 523      34.938  16.531  -7.293  0.00  0.00     0.078 H 
ATOM     25  H   ASG d 523      33.785  17.124  -8.458  0.00  0.00     0.078 H 
ATOM     26  H   ASG d 523      35.704  15.071  -8.911  0.00  0.00     0.209 HD
ATOM     27  H   ASG d 523      31.962  16.417  -6.944  0.00  0.00     0.093 H 
ATOM     28  H   ASG d 523      30.948  14.131  -7.061  0.00  0.00     0.091 H 
ATOM     29  H   ASG d 523      33.111  13.417  -5.068  0.00  0.00     0.084 H 
ATOM     30  H   ASG d 523      34.740  12.212  -5.893  0.00  0.00     0.212 HD
ATOM     31  H   ASG d 523      31.182  11.542  -6.192  0.00  0.00     0.163 HD
ATOM     32  H   ASG d 523      32.841  14.889  -8.663  0.00  0.00     0.090 H 
ATOM     33  C6  GCD d 525      28.346  17.458  -7.269  0.00  0.00     0.233 C 
ATOM     34  C5  GCD d 525      28.604  16.589  -6.110  0.00  0.00     0.147 C 
ATOM     35  O6B GCD d 525      28.561  17.052  -8.431  0.00  0.00    -0.642 OA
ATOM     36  O2  GCD d 525      27.404  14.353  -4.022  0.00  0.00    -0.388 OA
ATOM     37  C3  GCD d 525      28.809  16.291  -3.606  0.00  0.00     0.084 C 
ATOM     38  O3  GCD d 525      30.041  16.621  -2.969  0.00  0.00    -0.389 OA
ATOM     39  O6A GCD d 525      27.899  18.596  -7.038  0.00  0.00    -0.642 OA
ATOM     40  C2  GCD d 525      28.760  14.784  -3.912  0.00  0.00     0.111 C 
ATOM     41  O5  GCD d 525      28.861  15.165  -6.293  0.00  0.00    -0.311 OA
ATOM     42  C4  GCD d 525      28.591  17.104  -4.872  0.00  0.00    -0.034 C 
ATOM     43  C1  GCD d 525      29.479  14.450  -5.224  0.00  0.00     0.165 C 
ATOM     44  H   GCD d 525      26.932  14.556  -3.199  0.00  0.00     0.210 HD
ATOM     45  H   GCD d 525      28.014  16.537  -2.933  0.00  0.00     0.093 H 
ATOM     46  H   GCD d 525      30.779  16.407  -3.561  0.00  0.00     0.210 HD
ATOM     47  H   GCD d 525      29.252  14.279  -3.107  0.00  0.00     0.095 H 
ATOM     48  H   GCD d 525      28.423  18.116  -4.772  0.00  0.00     0.085 H 
ATOM     49  H   GCD d 525      29.405  13.406  -5.444  0.00  0.00     0.134 H 
ENDROOT
TORSDOF 12
ENDMDL
MODEL 61
REMARK VINA RESULT:      -6.1      3.033      6.620
REMARK  0 active torsions:
REMARK  status: ('A' for Active; 'I' for Inactive)
REMARK       I    between atoms: C1_1  and  O1_26 
REMARK       I    between atoms: C6_2  and  C5_3 
REMARK       I    between atoms: C8_4  and  C7_20 
REMARK       I    between atoms: O2_6  and  C2_15 
REMARK       I    between atoms: O4_7  and  C4_17 
REMARK       I    between atoms: O4_7  and  S_16 
REMARK       I    between atoms: C3_8  and  O3_9 
REMARK       I    between atoms: C6_10  and  C5_28 
REMARK       I    between atoms: C6_10  and  O6_14 
REMARK       I    between atoms: O3_13  and  C3_23 
REMARK       I    between atoms: O3_13  and  C1_30 
REMARK       I    between atoms: C7_20  and  N_27 
REMARK       I    between atoms: C2_24  and  N_27 
ROOT
ATOM      1  C1  ASG d 523      31.788  11.078  -9.050  0.00  0.00     0.151 C 
ATOM      2  C8  ASG d 523      35.456   7.985  -8.345  0.00  0.00    -0.003 C 
ATOM      3  O4  ASG d 523      32.897  13.202  -6.656  0.00  0.00    -0.246 OA
ATOM      4  C6  ASG d 523      30.119  13.876  -7.249  0.00  0.00     0.043 C 
ATOM      5  O5  ASG d 523      31.344  12.413  -8.725  0.00  0.00    -0.349 OA
ATOM      6  O3  ASG d 523      33.570  10.782  -5.782  0.00  0.00    -0.348 OA
ATOM      7  O6  ASG d 523      29.112  14.076  -8.224  0.00  0.00    -0.398 OA
ATOM      8  S   ASG d 523      33.254  14.325  -5.515  0.00  0.00     0.252 S 
ATOM      9  C4  ASG d 523      31.827  12.268  -6.429  0.00  0.00     0.114 C 
ATOM     10  OSB ASG d 523      34.194  15.423  -6.082  0.00  0.00    -0.572 OA
ATOM     11  C7  ASG d 523      34.927   9.383  -8.393  0.00  0.00     0.214 C 
ATOM     12  O7  ASG d 523      35.735  10.270  -8.458  0.00  0.00    -0.274 OA
ATOM     13  OSC ASG d 523      33.865  13.645  -4.418  0.00  0.00    -0.572 OA
ATOM     14  C3  ASG d 523      32.451  10.897  -6.665  0.00  0.00     0.094 C 
ATOM     15  C2  ASG d 523      32.964  10.831  -8.102  0.00  0.00     0.087 C 
ATOM     16  OSA ASG d 523      31.980  14.884  -5.149  0.00  0.00    -0.572 OA
ATOM     17  O1  ASG d 523      32.336  11.205 -10.325  0.00  0.00    -0.369 OA
ATOM     18  N   ASG d 523      33.598   9.544  -8.352  0.00  0.00    -0.349 N 
ATOM     19  C5  ASG d 523      30.717  12.495  -7.439  0.00  0.00     0.090 C 
ATOM     20  H   ASG d 523      31.032  10.323  -8.987  0.00  0.00     0.132 H 
ATOM     21  H   ASG d 523      34.639   7.295  -8.289  0.00  0.00     0.040 H 
ATOM     22  H   ASG d 523      36.080   7.868  -7.484  0.00  0.00     0.040 H 
ATOM     23  H   ASG d 523      36.027   7.789  -9.228  0.00  0.00     0.040 H 
ATOM     24  H   ASG d 523      30.882  14.617  -7.363  0.00  0.00     0.078 H 
ATOM     25  H   ASG d 523      29.697  13.957  -6.269  0.00  0.00     0.078 H 
ATOM     26  H   ASG d 523      29.500  14.002  -9.109  0.00  0.00     0.209 HD
ATOM     27  H   ASG d 523      31.406  12.368  -5.451  0.00  0.00     0.093 H 
ATOM     28  H   ASG d 523      31.738  10.117  -6.495  0.00  0.00     0.091 H 
ATOM     29  H   ASG d 523      33.705  11.584  -8.268  0.00  0.00     0.084 H 
ATOM     30  H   ASG d 523      33.011  11.901 -10.319  0.00  0.00     0.212 HD
ATOM     31  H   ASG d 523      33.024   8.758  -8.497  0.00  0.00     0.163 HD
ATOM     32  H   ASG d 523      29.929  11.779  -7.331  0.00  0.00     0.090 H 
ATOM     33  C6  GCD d 525      31.102  10.281  -2.318  0.00  0.00     0.233 C 
ATOM     34  C5  GCD d 525      32.378  10.092  -3.027  0.00  0.00     0.147 C 
ATOM     35  O6B GCD d 525      30.017  10.002  -2.872  0.00  0.00    -0.642 OA
ATOM     36  O2  GCD d 525      34.880   8.073  -3.704  0.00  0.00    -0.388 OA
ATOM     37  C3  GCD d 525      34.880  10.438  -3.149  0.00  0.00     0.084 C 
ATOM     38  O3  GCD d 525      35.384  11.671  -3.657  0.00  0.00    -0.389 OA
ATOM     39  O6A GCD d 525      31.158  10.715  -1.153  0.00  0.00    -0.642 OA
ATOM     40  C2  GCD d 525      34.841   9.383  -4.268  0.00  0.00     0.111 C 
ATOM     41  O5  GCD d 525      32.428   9.339  -4.275  0.00  0.00    -0.311 OA
ATOM     42  C4  GCD d 525      33.508  10.605  -2.519  0.00  0.00    -0.034 C 
ATOM     43  C1  GCD d 525      33.569   9.505  -5.115  0.00  0.00     0.165 C 
ATOM     44  H   GCD d 525      35.680   7.977  -3.164  0.00  0.00     0.210 HD
ATOM     45  H   GCD d 525      35.543  10.104  -2.378  0.00  0.00     0.093 H 
ATOM     46  H   GCD d 525      34.799  11.995  -4.359  0.00  0.00     0.210 HD
ATOM     47  H   GCD d 525      35.693   9.550  -4.894  0.00  0.00     0.095 H 
ATOM     48  H   GCD d 525      33.441  11.147  -1.644  0.00  0.00     0.085 H 
ATOM     49  H   GCD d 525      33.536   8.742  -5.865  0.00  0.00     0.134 H 
ENDROOT
TORSDOF 12
ENDMDL
MODEL 62
REMARK VINA RESULT:      -6.1      2.838      5.398
REMARK  0 active torsions:
REMARK  status: ('A' for Active; 'I' for Inactive)
REMARK       I    between atoms: C1_1  and  O1_26 
REMARK       I    between atoms: C6_2  and  C5_3 
REMARK       I    between atoms: C8_4  and  C7_20 
REMARK       I    between atoms: O2_6  and  C2_15 
REMARK       I    between atoms: O4_7  and  C4_17 
REMARK       I    between atoms: O4_7  and  S_16 
REMARK       I    between atoms: C3_8  and  O3_9 
REMARK       I    between atoms: C6_10  and  C5_28 
REMARK       I    between atoms: C6_10  and  O6_14 
REMARK       I    between atoms: O3_13  and  C3_23 
REMARK       I    between atoms: O3_13  and  C1_30 
REMARK       I    between atoms: C7_20  and  N_27 
REMARK       I    between atoms: C2_24  and  N_27 
ROOT
ATOM      1  C1  ASG d 523      30.718  10.860  -6.375  0.00  0.00     0.151 C 
ATOM      2  C8  ASG d 523      34.170  10.395  -3.000  0.00  0.00    -0.003 C 
ATOM      3  O4  ASG d 523      32.325  13.418  -7.907  0.00  0.00    -0.246 OA
ATOM      4  C6  ASG d 523      29.560  13.395  -8.843  0.00  0.00     0.043 C 
ATOM      5  O5  ASG d 523      30.440  11.497  -7.641  0.00  0.00    -0.349 OA
ATOM      6  O3  ASG d 523      32.902  13.701  -5.327  0.00  0.00    -0.348 OA
ATOM      7  O6  ASG d 523      28.449  12.641  -9.292  0.00  0.00    -0.398 OA
ATOM      8  S   ASG d 523      32.931  14.684  -8.756  0.00  0.00     0.252 S 
ATOM      9  C4  ASG d 523      31.221  13.623  -7.009  0.00  0.00     0.114 C 
ATOM     10  OSB ASG d 523      33.875  14.201  -9.890  0.00  0.00    -0.572 OA
ATOM     11  C7  ASG d 523      33.761  10.696  -4.407  0.00  0.00     0.214 C 
ATOM     12  O7  ASG d 523      34.625  10.679  -5.242  0.00  0.00    -0.274 OA
ATOM     13  OSC ASG d 523      33.627  15.525  -7.835  0.00  0.00    -0.572 OA
ATOM     14  C3  ASG d 523      31.686  13.038  -5.680  0.00  0.00     0.094 C 
ATOM     15  C2  ASG d 523      31.988  11.553  -5.876  0.00  0.00     0.087 C 
ATOM     16  OSA ASG d 523      31.772  15.340  -9.300  0.00  0.00    -0.572 OA
ATOM     17  O1  ASG d 523      31.093   9.564  -6.725  0.00  0.00    -0.369 OA
ATOM     18  N   ASG d 523      32.469  10.969  -4.632  0.00  0.00    -0.349 N 
ATOM     19  C5  ASG d 523      30.006  12.856  -7.497  0.00  0.00     0.090 C 
ATOM     20  H   ASG d 523      29.916  10.892  -5.667  0.00  0.00     0.132 H 
ATOM     21  H   ASG d 523      33.312  10.442  -2.361  0.00  0.00     0.040 H 
ATOM     22  H   ASG d 523      34.895  11.113  -2.678  0.00  0.00     0.040 H 
ATOM     23  H   ASG d 523      34.594   9.414  -2.954  0.00  0.00     0.040 H 
ATOM     24  H   ASG d 523      30.360  13.309  -9.548  0.00  0.00     0.078 H 
ATOM     25  H   ASG d 523      29.286  14.425  -8.750  0.00  0.00     0.078 H 
ATOM     26  H   ASG d 523      28.703  11.709  -9.376  0.00  0.00     0.209 HD
ATOM     27  H   ASG d 523      30.949  14.655  -6.934  0.00  0.00     0.093 H 
ATOM     28  H   ASG d 523      30.939  13.162  -4.924  0.00  0.00     0.091 H 
ATOM     29  H   ASG d 523      32.760  11.422  -6.604  0.00  0.00     0.084 H 
ATOM     30  H   ASG d 523      31.820   9.600  -7.366  0.00  0.00     0.212 HD
ATOM     31  H   ASG d 523      31.815  10.765  -3.925  0.00  0.00     0.163 HD
ATOM     32  H   ASG d 523      29.182  12.944  -6.820  0.00  0.00     0.090 H 
ATOM     33  C6  GCD d 525      30.903  17.341  -4.280  0.00  0.00     0.233 C 
ATOM     34  C5  GCD d 525      32.048  16.423  -4.165  0.00  0.00     0.147 C 
ATOM     35  O6B GCD d 525      29.732  16.916  -4.180  0.00  0.00    -0.642 OA
ATOM     36  O2  GCD d 525      34.250  15.000  -2.185  0.00  0.00    -0.388 OA
ATOM     37  C3  GCD d 525      34.530  15.989  -4.386  0.00  0.00     0.084 C 
ATOM     38  O3  GCD d 525      35.063  15.655  -5.665  0.00  0.00    -0.389 OA
ATOM     39  O6A GCD d 525      31.156  18.545  -4.466  0.00  0.00    -0.642 OA
ATOM     40  C2  GCD d 525      34.246  14.708  -3.582  0.00  0.00     0.111 C 
ATOM     41  O5  GCD d 525      31.860  15.062  -3.677  0.00  0.00    -0.311 OA
ATOM     42  C4  GCD d 525      33.277  16.841  -4.500  0.00  0.00    -0.034 C 
ATOM     43  C1  GCD d 525      32.885  14.105  -3.944  0.00  0.00     0.165 C 
ATOM     44  H   GCD d 525      35.106  15.383  -1.937  0.00  0.00     0.210 HD
ATOM     45  H   GCD d 525      35.262  16.572  -3.867  0.00  0.00     0.093 H 
ATOM     46  H   GCD d 525      34.415  15.125  -6.157  0.00  0.00     0.210 HD
ATOM     47  H   GCD d 525      35.014  14.004  -3.823  0.00  0.00     0.095 H 
ATOM     48  H   GCD d 525      33.379  17.803  -4.858  0.00  0.00     0.085 H 
ATOM     49  H   GCD d 525      32.682  13.237  -3.351  0.00  0.00     0.134 H 
ENDROOT
TORSDOF 12
ENDMDL
MODEL 63
REMARK VINA RESULT:      -6.1      2.466      5.856
REMARK  0 active torsions:
REMARK  status: ('A' for Active; 'I' for Inactive)
REMARK       I    between atoms: C1_1  and  O1_26 
REMARK       I    between atoms: C6_2  and  C5_3 
REMARK       I    between atoms: C8_4  and  C7_20 
REMARK       I    between atoms: O2_6  and  C2_15 
REMARK       I    between atoms: O4_7  and  C4_17 
REMARK       I    between atoms: O4_7  and  S_16 
REMARK       I    between atoms: C3_8  and  O3_9 
REMARK       I    between atoms: C6_10  and  C5_28 
REMARK       I    between atoms: C6_10  and  O6_14 
REMARK       I    between atoms: O3_13  and  C3_23 
REMARK       I    between atoms: O3_13  and  C1_30 
REMARK       I    between atoms: C7_20  and  N_27 
REMARK       I    between atoms: C2_24  and  N_27 
ROOT
ATOM      1  C1  ASG d 523      30.665  15.025  -7.425  0.00  0.00     0.151 C 
ATOM      2  C8  ASG d 523      34.065  16.610  -4.350  0.00  0.00    -0.003 C 
ATOM      3  O4  ASG d 523      29.420  12.820  -5.177  0.00  0.00    -0.246 OA
ATOM      4  C6  ASG d 523      28.418  12.084  -7.819  0.00  0.00     0.043 C 
ATOM      5  O5  ASG d 523      29.459  14.235  -7.482  0.00  0.00    -0.349 OA
ATOM      6  O3  ASG d 523      32.029  12.908  -4.669  0.00  0.00    -0.348 OA
ATOM      7  O6  ASG d 523      27.874  12.501  -9.057  0.00  0.00    -0.398 OA
ATOM      8  S   ASG d 523      28.709  11.674  -4.243  0.00  0.00     0.252 S 
ATOM      9  C4  ASG d 523      30.306  12.427  -6.239  0.00  0.00     0.114 C 
ATOM     10  OSB ASG d 523      27.557  12.276  -3.393  0.00  0.00    -0.572 OA
ATOM     11  C7  ASG d 523      32.683  16.099  -4.608  0.00  0.00     0.214 C 
ATOM     12  O7  ASG d 523      31.872  16.257  -3.736  0.00  0.00    -0.274 OA
ATOM     13  OSC ASG d 523      29.721  11.111  -3.407  0.00  0.00    -0.572 OA
ATOM     14  C3  ASG d 523      31.585  13.220  -5.992  0.00  0.00     0.094 C 
ATOM     15  C2  ASG d 523      31.258  14.711  -6.050  0.00  0.00     0.087 C 
ATOM     16  OSA ASG d 523      28.200  10.710  -5.182  0.00  0.00    -0.572 OA
ATOM     17  O1  ASG d 523      30.205  16.340  -7.359  0.00  0.00    -0.369 OA
ATOM     18  N   ASG d 523      32.453  15.499  -5.783  0.00  0.00    -0.349 N 
ATOM     19  C5  ASG d 523      29.719  12.828  -7.580  0.00  0.00     0.090 C 
ATOM     20  H   ASG d 523      31.354  14.858  -8.227  0.00  0.00     0.132 H 
ATOM     21  H   ASG d 523      34.685  16.408  -5.199  0.00  0.00     0.040 H 
ATOM     22  H   ASG d 523      34.471  16.122  -3.489  0.00  0.00     0.040 H 
ATOM     23  H   ASG d 523      34.029  17.665  -4.178  0.00  0.00     0.040 H 
ATOM     24  H   ASG d 523      27.729  12.303  -7.031  0.00  0.00     0.078 H 
ATOM     25  H   ASG d 523      28.602  11.030  -7.839  0.00  0.00     0.078 H 
ATOM     26  H   ASG d 523      27.710  13.456  -9.032  0.00  0.00     0.209 HD
ATOM     27  H   ASG d 523      30.471  11.371  -6.256  0.00  0.00     0.093 H 
ATOM     28  H   ASG d 523      32.331  12.980  -6.721  0.00  0.00     0.091 H 
ATOM     29  H   ASG d 523      30.541  14.965  -5.299  0.00  0.00     0.084 H 
ATOM     30  H   ASG d 523      29.588  16.429  -6.616  0.00  0.00     0.212 HD
ATOM     31  H   ASG d 523      33.122  15.595  -6.499  0.00  0.00     0.163 HD
ATOM     32  H   ASG d 523      30.381  12.599  -8.388  0.00  0.00     0.090 H 
ATOM     33  C6  GCD d 525      33.364   8.991  -5.773  0.00  0.00     0.233 C 
ATOM     34  C5  GCD d 525      33.419  10.169  -4.891  0.00  0.00     0.147 C 
ATOM     35  O6B GCD d 525      33.395   9.122  -7.015  0.00  0.00    -0.642 OA
ATOM     36  O2  GCD d 525      35.310  12.252  -3.194  0.00  0.00    -0.388 OA
ATOM     37  C3  GCD d 525      33.219  11.178  -2.581  0.00  0.00     0.084 C 
ATOM     38  O3  GCD d 525      31.928  11.523  -2.086  0.00  0.00    -0.389 OA
ATOM     39  O6A GCD d 525      33.297   7.875  -5.227  0.00  0.00    -0.642 OA
ATOM     40  C2  GCD d 525      33.892  12.414  -3.203  0.00  0.00     0.111 C 
ATOM     41  O5  GCD d 525      33.773  11.478  -5.426  0.00  0.00    -0.311 OA
ATOM     42  C4  GCD d 525      33.155  10.038  -3.583  0.00  0.00    -0.034 C 
ATOM     43  C1  GCD d 525      33.442  12.632  -4.652  0.00  0.00     0.165 C 
ATOM     44  H   GCD d 525      35.614  12.113  -2.283  0.00  0.00     0.210 HD
ATOM     45  H   GCD d 525      33.808  10.839  -1.755  0.00  0.00     0.093 H 
ATOM     46  H   GCD d 525      31.373  11.834  -2.819  0.00  0.00     0.210 HD
ATOM     47  H   GCD d 525      33.605  13.262  -2.618  0.00  0.00     0.095 H 
ATOM     48  H   GCD d 525      32.892   9.103  -3.234  0.00  0.00     0.085 H 
ATOM     49  H   GCD d 525      33.946  13.470  -5.086  0.00  0.00     0.134 H 
ENDROOT
TORSDOF 12
ENDMDL
MODEL 64
REMARK VINA RESULT:      -6.0      3.449      5.535
REMARK  0 active torsions:
REMARK  status: ('A' for Active; 'I' for Inactive)
REMARK       I    between atoms: C1_1  and  O1_26 
REMARK       I    between atoms: C6_2  and  C5_3 
REMARK       I    between atoms: C8_4  and  C7_20 
REMARK       I    between atoms: O2_6  and  C2_15 
REMARK       I    between atoms: O4_7  and  C4_17 
REMARK       I    between atoms: O4_7  and  S_16 
REMARK       I    between atoms: C3_8  and  O3_9 
REMARK       I    between atoms: C6_10  and  C5_28 
REMARK       I    between atoms: C6_10  and  O6_14 
REMARK       I    between atoms: O3_13  and  C3_23 
REMARK       I    between atoms: O3_13  and  C1_30 
REMARK       I    between atoms: C7_20  and  N_27 
REMARK       I    between atoms: C2_24  and  N_27 
ROOT
ATOM      1  C1  ASG d 523      33.538  11.409  -7.002  0.00  0.00     0.151 C 
ATOM      2  C8  ASG d 523      33.675  12.375  -2.251  0.00  0.00    -0.003 C 
ATOM      3  O4  ASG d 523      34.197  14.622  -7.845  0.00  0.00    -0.246 OA
ATOM      4  C6  ASG d 523      33.162  13.258 -10.211  0.00  0.00     0.043 C 
ATOM      5  O5  ASG d 523      33.861  11.976  -8.290  0.00  0.00    -0.349 OA
ATOM      6  O3  ASG d 523      32.761  14.787  -5.613  0.00  0.00    -0.348 OA
ATOM      7  O6  ASG d 523      33.161  12.103 -11.028  0.00  0.00    -0.398 OA
ATOM      8  S   ASG d 523      34.467  16.125  -8.445  0.00  0.00     0.252 S 
ATOM      9  C4  ASG d 523      32.870  14.068  -7.879  0.00  0.00     0.114 C 
ATOM     10  OSB ASG d 523      35.987  16.397  -8.617  0.00  0.00    -0.572 OA
ATOM     11  C7  ASG d 523      34.176  12.614  -3.640  0.00  0.00     0.214 C 
ATOM     12  O7  ASG d 523      35.226  13.186  -3.750  0.00  0.00    -0.274 OA
ATOM     13  OSC ASG d 523      33.879  17.062  -7.541  0.00  0.00    -0.572 OA
ATOM     14  C3  ASG d 523      32.593  13.635  -6.444  0.00  0.00     0.094 C 
ATOM     15  C2  ASG d 523      33.631  12.592  -6.036  0.00  0.00     0.087 C 
ATOM     16  OSA ASG d 523      33.801  16.129  -9.720  0.00  0.00    -0.572 OA
ATOM     17  O1  ASG d 523      34.625  10.585  -6.714  0.00  0.00    -0.369 OA
ATOM     18  N   ASG d 523      33.417  12.181  -4.656  0.00  0.00    -0.349 N 
ATOM     19  C5  ASG d 523      32.839  12.851  -8.785  0.00  0.00     0.090 C 
ATOM     20  H   ASG d 523      32.597  10.901  -6.954  0.00  0.00     0.132 H 
ATOM     21  H   ASG d 523      32.737  11.860  -2.293  0.00  0.00     0.040 H 
ATOM     22  H   ASG d 523      33.545  13.313  -1.753  0.00  0.00     0.040 H 
ATOM     23  H   ASG d 523      34.383  11.781  -1.714  0.00  0.00     0.040 H 
ATOM     24  H   ASG d 523      34.126  13.721 -10.243  0.00  0.00     0.078 H 
ATOM     25  H   ASG d 523      32.430  13.954 -10.564  0.00  0.00     0.078 H 
ATOM     26  H   ASG d 523      33.827  11.477 -10.703  0.00  0.00     0.209 HD
ATOM     27  H   ASG d 523      32.150  14.769  -8.246  0.00  0.00     0.093 H 
ATOM     28  H   ASG d 523      31.608  13.227  -6.350  0.00  0.00     0.091 H 
ATOM     29  H   ASG d 523      34.616  13.005  -6.091  0.00  0.00     0.084 H 
ATOM     30  H   ASG d 523      35.445  11.099  -6.773  0.00  0.00     0.212 HD
ATOM     31  H   ASG d 523      32.682  11.557  -4.460  0.00  0.00     0.163 HD
ATOM     32  H   ASG d 523      31.877  12.382  -8.788  0.00  0.00     0.090 H 
ATOM     33  C6  GCD d 525      29.108  16.585  -6.939  0.00  0.00     0.233 C 
ATOM     34  C5  GCD d 525      30.169  16.419  -5.933  0.00  0.00     0.147 C 
ATOM     35  O6B GCD d 525      28.560  15.589  -7.459  0.00  0.00    -0.642 OA
ATOM     36  O2  GCD d 525      30.924  16.125  -2.748  0.00  0.00    -0.388 OA
ATOM     37  C3  GCD d 525      31.996  17.422  -4.500  0.00  0.00     0.084 C 
ATOM     38  O3  GCD d 525      33.290  17.619  -5.066  0.00  0.00    -0.389 OA
ATOM     39  O6A GCD d 525      28.780  17.749  -7.232  0.00  0.00    -0.642 OA
ATOM     40  C2  GCD d 525      31.953  16.087  -3.737  0.00  0.00     0.111 C 
ATOM     41  O5  GCD d 525      30.422  15.115  -5.331  0.00  0.00    -0.311 OA
ATOM     42  C4  GCD d 525      30.903  17.475  -5.554  0.00  0.00    -0.034 C 
ATOM     43  C1  GCD d 525      31.674  14.908  -4.676  0.00  0.00     0.165 C 
ATOM     44  H   GCD d 525      31.084  16.866  -2.143  0.00  0.00     0.210 HD
ATOM     45  H   GCD d 525      31.812  18.222  -3.814  0.00  0.00     0.093 H 
ATOM     46  H   GCD d 525      33.480  16.904  -5.694  0.00  0.00     0.210 HD
ATOM     47  H   GCD d 525      32.910  15.949  -3.280  0.00  0.00     0.095 H 
ATOM     48  H   GCD d 525      30.714  18.382  -6.008  0.00  0.00     0.085 H 
ATOM     49  H   GCD d 525      31.607  13.991  -4.129  0.00  0.00     0.134 H 
ENDROOT
TORSDOF 12
ENDMDL
MODEL 65
REMARK VINA RESULT:      -6.0      3.265      6.683
REMARK  0 active torsions:
REMARK  status: ('A' for Active; 'I' for Inactive)
REMARK       I    between atoms: C1_1  and  O1_26 
REMARK       I    between atoms: C6_2  and  C5_3 
REMARK       I    between atoms: C8_4  and  C7_20 
REMARK       I    between atoms: O2_6  and  C2_15 
REMARK       I    between atoms: O4_7  and  C4_17 
REMARK       I    between atoms: O4_7  and  S_16 
REMARK       I    between atoms: C3_8  and  O3_9 
REMARK       I    between atoms: C6_10  and  C5_28 
REMARK       I    between atoms: C6_10  and  O6_14 
REMARK       I    between atoms: O3_13  and  C3_23 
REMARK       I    between atoms: O3_13  and  C1_30 
REMARK       I    between atoms: C7_20  and  N_27 
REMARK       I    between atoms: C2_24  and  N_27 
ROOT
ATOM      1  C1  ASG d 523      32.578  17.162  -6.251  0.00  0.00     0.151 C 
ATOM      2  C8  ASG d 523      34.633  16.663 -10.616  0.00  0.00    -0.003 C 
ATOM      3  O4  ASG d 523      33.698  14.146  -5.193  0.00  0.00    -0.246 OA
ATOM      4  C6  ASG d 523      31.578  15.012  -3.381  0.00  0.00     0.043 C 
ATOM      5  O5  ASG d 523      32.557  16.584  -4.928  0.00  0.00    -0.349 OA
ATOM      6  O3  ASG d 523      33.241  13.826  -7.793  0.00  0.00    -0.348 OA
ATOM      7  O6  ASG d 523      30.990  16.059  -2.633  0.00  0.00    -0.398 OA
ATOM      8  S   ASG d 523      34.115  12.709  -4.520  0.00  0.00     0.252 S 
ATOM      9  C4  ASG d 523      32.350  14.355  -5.651  0.00  0.00     0.114 C 
ATOM     10  OSB ASG d 523      35.490  12.801  -3.804  0.00  0.00    -0.572 OA
ATOM     11  C7  ASG d 523      34.653  16.437  -9.137  0.00  0.00     0.214 C 
ATOM     12  O7  ASG d 523      35.705  16.130  -8.647  0.00  0.00    -0.274 OA
ATOM     13  OSC ASG d 523      34.148  11.737  -5.567  0.00  0.00    -0.572 OA
ATOM     14  C3  ASG d 523      32.499  14.828  -7.093  0.00  0.00     0.094 C 
ATOM     15  C2  ASG d 523      33.308  16.123  -7.105  0.00  0.00     0.087 C 
ATOM     16  OSA ASG d 523      33.065  12.435  -3.576  0.00  0.00    -0.572 OA
ATOM     17  O1  ASG d 523      33.445  18.247  -6.132  0.00  0.00    -0.369 OA
ATOM     18  N   ASG d 523      33.499  16.585  -8.473  0.00  0.00    -0.349 N 
ATOM     19  C5  ASG d 523      31.688  15.448  -4.830  0.00  0.00     0.090 C 
ATOM     20  H   ASG d 523      31.618  17.428  -6.643  0.00  0.00     0.132 H 
ATOM     21  H   ASG d 523      33.643  16.929 -10.924  0.00  0.00     0.040 H 
ATOM     22  H   ASG d 523      34.934  15.767 -11.118  0.00  0.00     0.040 H 
ATOM     23  H   ASG d 523      35.308  17.455 -10.864  0.00  0.00     0.040 H 
ATOM     24  H   ASG d 523      32.553  14.797  -2.995  0.00  0.00     0.078 H 
ATOM     25  H   ASG d 523      30.973  14.132  -3.311  0.00  0.00     0.078 H 
ATOM     26  H   ASG d 523      31.543  16.854  -2.699  0.00  0.00     0.209 HD
ATOM     27  H   ASG d 523      31.753  13.472  -5.564  0.00  0.00     0.093 H 
ATOM     28  H   ASG d 523      31.541  14.991  -7.542  0.00  0.00     0.091 H 
ATOM     29  H   ASG d 523      34.281  15.959  -6.691  0.00  0.00     0.084 H 
ATOM     30  H   ASG d 523      34.294  17.945  -5.773  0.00  0.00     0.212 HD
ATOM     31  H   ASG d 523      32.747  17.025  -8.929  0.00  0.00     0.163 HD
ATOM     32  H   ASG d 523      30.702  15.666  -5.183  0.00  0.00     0.090 H 
ATOM     33  C6  GCD d 525      29.949  11.088  -7.871  0.00  0.00     0.233 C 
ATOM     34  C5  GCD d 525      31.217  11.592  -8.423  0.00  0.00     0.147 C 
ATOM     35  O6B GCD d 525      29.016  11.873  -7.596  0.00  0.00    -0.642 OA
ATOM     36  O2  GCD d 525      32.948  12.328 -11.117  0.00  0.00    -0.388 OA
ATOM     37  C3  GCD d 525      33.625  11.188  -9.081  0.00  0.00     0.084 C 
ATOM     38  O3  GCD d 525      34.638  11.265  -8.081  0.00  0.00    -0.389 OA
ATOM     39  O6A GCD d 525      29.850   9.859  -7.705  0.00  0.00    -0.642 OA
ATOM     40  C2  GCD d 525      33.513  12.532  -9.822  0.00  0.00     0.111 C 
ATOM     41  O5  GCD d 525      31.322  12.964  -8.904  0.00  0.00    -0.311 OA
ATOM     42  C4  GCD d 525      32.283  10.782  -8.497  0.00  0.00    -0.034 C 
ATOM     43  C1  GCD d 525      32.626  13.523  -9.060  0.00  0.00     0.165 C 
ATOM     44  H   GCD d 525      33.498  11.702 -11.614  0.00  0.00     0.210 HD
ATOM     45  H   GCD d 525      33.909  10.428  -9.779  0.00  0.00     0.093 H 
ATOM     46  H   GCD d 525      34.403  11.949  -7.434  0.00  0.00     0.210 HD
ATOM     47  H   GCD d 525      34.500  12.937  -9.900  0.00  0.00     0.095 H 
ATOM     48  H   GCD d 525      32.186   9.821  -8.134  0.00  0.00     0.085 H 
ATOM     49  H   GCD d 525      32.524  14.440  -9.604  0.00  0.00     0.134 H 
ENDROOT
TORSDOF 12
ENDMDL
MODEL 66
REMARK VINA RESULT:      -6.0      3.498      5.690
REMARK  0 active torsions:
REMARK  status: ('A' for Active; 'I' for Inactive)
REMARK       I    between atoms: C1_1  and  O1_26 
REMARK       I    between atoms: C6_2  and  C5_3 
REMARK       I    between atoms: C8_4  and  C7_20 
REMARK       I    between atoms: O2_6  and  C2_15 
REMARK       I    between atoms: O4_7  and  C4_17 
REMARK       I    between atoms: O4_7  and  S_16 
REMARK       I    between atoms: C3_8  and  O3_9 
REMARK       I    between atoms: C6_10  and  C5_28 
REMARK       I    between atoms: C6_10  and  O6_14 
REMARK       I    between atoms: O3_13  and  C3_23 
REMARK       I    between atoms: O3_13  and  C1_30 
REMARK       I    between atoms: C7_20  and  N_27 
REMARK       I    between atoms: C2_24  and  N_27 
ROOT
ATOM      1  C1  ASG d 523      33.050  12.705  -5.659  0.00  0.00     0.151 C 
ATOM      2  C8  ASG d 523      31.778  12.139 -10.305  0.00  0.00    -0.003 C 
ATOM      3  O4  ASG d 523      32.317  16.012  -5.686  0.00  0.00    -0.246 OA
ATOM      4  C6  ASG d 523      33.967  15.468  -3.339  0.00  0.00     0.043 C 
ATOM      5  O5  ASG d 523      32.974  13.641  -4.562  0.00  0.00    -0.349 OA
ATOM      6  O3  ASG d 523      33.201  15.492  -8.140  0.00  0.00    -0.348 OA
ATOM      7  O6  ASG d 523      34.250  14.625  -2.238  0.00  0.00    -0.398 OA
ATOM      8  S   ASG d 523      32.057  17.623  -5.518  0.00  0.00     0.252 S 
ATOM      9  C4  ASG d 523      33.662  15.515  -5.805  0.00  0.00     0.114 C 
ATOM     10  OSB ASG d 523      30.596  17.913  -5.078  0.00  0.00    -0.572 OA
ATOM     11  C7  ASG d 523      31.579  12.793  -8.974  0.00  0.00     0.214 C 
ATOM     12  O7  ASG d 523      30.533  13.356  -8.794  0.00  0.00    -0.274 OA
ATOM     13  OSC ASG d 523      32.345  18.239  -6.774  0.00  0.00    -0.572 OA
ATOM     14  C3  ASG d 523      33.650  14.660  -7.067  0.00  0.00     0.094 C 
ATOM     15  C2  ASG d 523      32.642  13.527  -6.884  0.00  0.00     0.087 C 
ATOM     16  OSA ASG d 523      32.987  18.034  -4.500  0.00  0.00    -0.572 OA
ATOM     17  O1  ASG d 523      32.003  11.817  -5.419  0.00  0.00    -0.369 OA
ATOM     18  N   ASG d 523      32.579  12.709  -8.087  0.00  0.00    -0.349 N 
ATOM     19  C5  ASG d 523      33.999  14.641  -4.610  0.00  0.00     0.090 C 
ATOM     20  H   ASG d 523      33.998  12.221  -5.775  0.00  0.00     0.132 H 
ATOM     21  H   ASG d 523      32.743  11.677 -10.335  0.00  0.00     0.040 H 
ATOM     22  H   ASG d 523      31.712  12.877 -11.078  0.00  0.00     0.040 H 
ATOM     23  H   ASG d 523      31.022  11.398 -10.455  0.00  0.00     0.040 H 
ATOM     24  H   ASG d 523      32.997  15.904  -3.218  0.00  0.00     0.078 H 
ATOM     25  H   ASG d 523      34.696  16.249  -3.395  0.00  0.00     0.078 H 
ATOM     26  H   ASG d 523      33.586  13.920  -2.192  0.00  0.00     0.209 HD
ATOM     27  H   ASG d 523      34.381  16.305  -5.847  0.00  0.00     0.093 H 
ATOM     28  H   ASG d 523      34.621  14.256  -7.266  0.00  0.00     0.091 H 
ATOM     29  H   ASG d 523      31.661  13.922  -6.722  0.00  0.00     0.084 H 
ATOM     30  H   ASG d 523      31.174  12.312  -5.323  0.00  0.00     0.212 HD
ATOM     31  H   ASG d 523      33.305  12.065  -8.256  0.00  0.00     0.163 HD
ATOM     32  H   ASG d 523      34.975  14.211  -4.696  0.00  0.00     0.090 H 
ATOM     33  C6  GCD d 525      36.887  17.665  -8.324  0.00  0.00     0.233 C 
ATOM     34  C5  GCD d 525      35.647  17.179  -8.951  0.00  0.00     0.147 C 
ATOM     35  O6B GCD d 525      37.621  16.889  -7.676  0.00  0.00    -0.642 OA
ATOM     36  O2  GCD d 525      34.233  15.896 -11.625  0.00  0.00    -0.388 OA
ATOM     37  C3  GCD d 525      33.467  17.659 -10.140  0.00  0.00     0.084 C 
ATOM     38  O3  GCD d 525      32.319  18.005  -9.367  0.00  0.00    -0.389 OA
ATOM     39  O6A GCD d 525      37.169  18.867  -8.480  0.00  0.00    -0.642 OA
ATOM     40  C2  GCD d 525      33.456  16.154 -10.455  0.00  0.00     0.111 C 
ATOM     41  O5  GCD d 525      35.381  15.749  -9.056  0.00  0.00    -0.311 OA
ATOM     42  C4  GCD d 525      34.758  18.054  -9.442  0.00  0.00    -0.034 C 
ATOM     43  C1  GCD d 525      34.039  15.331  -9.300  0.00  0.00     0.165 C 
ATOM     44  H   GCD d 525      33.878  16.409 -12.368  0.00  0.00     0.210 HD
ATOM     45  H   GCD d 525      33.423  18.208 -11.057  0.00  0.00     0.093 H 
ATOM     46  H   GCD d 525      32.336  17.518  -8.528  0.00  0.00     0.210 HD
ATOM     47  H   GCD d 525      32.437  15.867 -10.608  0.00  0.00     0.095 H 
ATOM     48  H   GCD d 525      34.963  19.060  -9.340  0.00  0.00     0.085 H 
ATOM     49  H   GCD d 525      34.062  14.290  -9.547  0.00  0.00     0.134 H 
ENDROOT
TORSDOF 12
ENDMDL
MODEL 67
REMARK VINA RESULT:      -6.0      2.966      5.581
REMARK  0 active torsions:
REMARK  status: ('A' for Active; 'I' for Inactive)
REMARK       I    between atoms: C1_1  and  O1_26 
REMARK       I    between atoms: C6_2  and  C5_3 
REMARK       I    between atoms: C8_4  and  C7_20 
REMARK       I    between atoms: O2_6  and  C2_15 
REMARK       I    between atoms: O4_7  and  C4_17 
REMARK       I    between atoms: O4_7  and  S_16 
REMARK       I    between atoms: C3_8  and  O3_9 
REMARK       I    between atoms: C6_10  and  C5_28 
REMARK       I    between atoms: C6_10  and  O6_14 
REMARK       I    between atoms: O3_13  and  C3_23 
REMARK       I    between atoms: O3_13  and  C1_30 
REMARK       I    between atoms: C7_20  and  N_27 
REMARK       I    between atoms: C2_24  and  N_27 
ROOT
ATOM      1  C1  ASG d 523      34.749  13.518  -3.678  0.00  0.00     0.151 C 
ATOM      2  C8  ASG d 523      33.495   9.030  -5.024  0.00  0.00    -0.003 C 
ATOM      3  O4  ASG d 523      31.825  14.841  -4.760  0.00  0.00    -0.246 OA
ATOM      4  C6  ASG d 523      33.725  17.027  -4.383  0.00  0.00     0.043 C 
ATOM      5  O5  ASG d 523      34.208  14.842  -3.480  0.00  0.00    -0.349 OA
ATOM      6  O3  ASG d 523      32.335  12.850  -6.446  0.00  0.00    -0.348 OA
ATOM      7  O6  ASG d 523      34.732  17.619  -3.586  0.00  0.00    -0.398 OA
ATOM      8  S   ASG d 523      30.496  15.665  -5.256  0.00  0.00     0.252 S 
ATOM      9  C4  ASG d 523      33.042  14.925  -5.521  0.00  0.00     0.114 C 
ATOM     10  OSB ASG d 523      29.414  15.711  -4.142  0.00  0.00    -0.572 OA
ATOM     11  C7  ASG d 523      33.126  10.375  -4.481  0.00  0.00     0.214 C 
ATOM     12  O7  ASG d 523      32.065  10.466  -3.925  0.00  0.00    -0.274 OA
ATOM     13  OSC ASG d 523      29.998  15.014  -6.426  0.00  0.00    -0.572 OA
ATOM     14  C3  ASG d 523      33.436  13.476  -5.784  0.00  0.00     0.094 C 
ATOM     15  C2  ASG d 523      33.654  12.774  -4.445  0.00  0.00     0.087 C 
ATOM     16  OSA ASG d 523      30.981  16.987  -5.551  0.00  0.00    -0.572 OA
ATOM     17  O1  ASG d 523      34.770  12.968  -2.397  0.00  0.00    -0.369 OA
ATOM     18  N   ASG d 523      33.998  11.376  -4.659  0.00  0.00    -0.349 N 
ATOM     19  C5  ASG d 523      34.125  15.597  -4.696  0.00  0.00     0.090 C 
ATOM     20  H   ASG d 523      35.700  13.487  -4.168  0.00  0.00     0.132 H 
ATOM     21  H   ASG d 523      34.457   9.086  -5.490  0.00  0.00     0.040 H 
ATOM     22  H   ASG d 523      32.766   8.725  -5.746  0.00  0.00     0.040 H 
ATOM     23  H   ASG d 523      33.526   8.320  -4.226  0.00  0.00     0.040 H 
ATOM     24  H   ASG d 523      32.796  17.032  -3.852  0.00  0.00     0.078 H 
ATOM     25  H   ASG d 523      33.610  17.579  -5.293  0.00  0.00     0.078 H 
ATOM     26  H   ASG d 523      34.831  17.115  -2.763  0.00  0.00     0.209 HD
ATOM     27  H   ASG d 523      32.917  15.490  -6.420  0.00  0.00     0.093 H 
ATOM     28  H   ASG d 523      34.328  13.422  -6.373  0.00  0.00     0.091 H 
ATOM     29  H   ASG d 523      32.755  12.791  -3.865  0.00  0.00     0.084 H 
ATOM     30  H   ASG d 523      33.885  13.025  -2.006  0.00  0.00     0.212 HD
ATOM     31  H   ASG d 523      34.913  11.156  -4.947  0.00  0.00     0.163 HD
ATOM     32  H   ASG d 523      35.060  15.625  -5.215  0.00  0.00     0.090 H 
ATOM     33  C6  GCD d 525      33.084  14.877 -10.143  0.00  0.00     0.233 C 
ATOM     34  C5  GCD d 525      32.525  13.745  -9.387  0.00  0.00     0.147 C 
ATOM     35  O6B GCD d 525      34.252  15.270  -9.935  0.00  0.00    -0.642 OA
ATOM     36  O2  GCD d 525      32.069  10.495  -9.232  0.00  0.00    -0.388 OA
ATOM     37  C3  GCD d 525      30.540  12.318  -8.741  0.00  0.00     0.084 C 
ATOM     38  O3  GCD d 525      29.682  12.761  -7.692  0.00  0.00    -0.389 OA
ATOM     39  O6A GCD d 525      32.350  15.409 -10.996  0.00  0.00    -0.642 OA
ATOM     40  C2  GCD d 525      31.589  11.338  -8.185  0.00  0.00     0.111 C 
ATOM     41  O5  GCD d 525      33.391  12.896  -8.577  0.00  0.00    -0.311 OA
ATOM     42  C4  GCD d 525      31.212  13.480  -9.451  0.00  0.00    -0.034 C 
ATOM     43  C1  GCD d 525      32.785  12.078  -7.576  0.00  0.00     0.165 C 
ATOM     44  H   GCD d 525      31.324  10.017  -9.629  0.00  0.00     0.210 HD
ATOM     45  H   GCD d 525      29.939  11.811  -9.466  0.00  0.00     0.093 H 
ATOM     46  H   GCD d 525      30.205  13.225  -7.020  0.00  0.00     0.210 HD
ATOM     47  H   GCD d 525      31.112  10.760  -7.422  0.00  0.00     0.095 H 
ATOM     48  H   GCD d 525      30.621  14.107 -10.018  0.00  0.00     0.085 H 
ATOM     49  H   GCD d 525      33.524  11.387  -7.229  0.00  0.00     0.134 H 
ENDROOT
TORSDOF 12
ENDMDL
MODEL 68
REMARK VINA RESULT:      -6.0      3.757      7.096
REMARK  0 active torsions:
REMARK  status: ('A' for Active; 'I' for Inactive)
REMARK       I    between atoms: C1_1  and  O1_26 
REMARK       I    between atoms: C6_2  and  C5_3 
REMARK       I    between atoms: C8_4  and  C7_20 
REMARK       I    between atoms: O2_6  and  C2_15 
REMARK       I    between atoms: O4_7  and  C4_17 
REMARK       I    between atoms: O4_7  and  S_16 
REMARK       I    between atoms: C3_8  and  O3_9 
REMARK       I    between atoms: C6_10  and  C5_28 
REMARK       I    between atoms: C6_10  and  O6_14 
REMARK       I    between atoms: O3_13  and  C3_23 
REMARK       I    between atoms: O3_13  and  C1_30 
REMARK       I    between atoms: C7_20  and  N_27 
REMARK       I    between atoms: C2_24  and  N_27 
ROOT
ATOM      1  C1  ASG d 523      34.108  15.144 -10.445  0.00  0.00     0.151 C 
ATOM      2  C8  ASG d 523      36.200  18.938  -8.264  0.00  0.00    -0.003 C 
ATOM      3  O4  ASG d 523      31.150  15.661  -8.879  0.00  0.00    -0.246 OA
ATOM      4  C6  ASG d 523      31.133  12.957  -9.979  0.00  0.00     0.043 C 
ATOM      5  O5  ASG d 523      32.822  14.530 -10.679  0.00  0.00    -0.349 OA
ATOM      6  O3  ASG d 523      32.992  16.419  -7.117  0.00  0.00    -0.348 OA
ATOM      7  O6  ASG d 523      31.431  12.099 -11.065  0.00  0.00    -0.398 OA
ATOM      8  S   ASG d 523      29.662  15.728  -8.192  0.00  0.00     0.252 S 
ATOM      9  C4  ASG d 523      32.091  14.663  -8.447  0.00  0.00     0.114 C 
ATOM     10  OSB ASG d 523      28.704  16.635  -9.011  0.00  0.00    -0.572 OA
ATOM     11  C7  ASG d 523      34.997  18.292  -8.874  0.00  0.00     0.214 C 
ATOM     12  O7  ASG d 523      34.081  19.011  -9.167  0.00  0.00    -0.274 OA
ATOM     13  OSC ASG d 523      29.823  16.224  -6.862  0.00  0.00    -0.572 OA
ATOM     14  C3  ASG d 523      33.353  15.444  -8.099  0.00  0.00     0.094 C 
ATOM     15  C2  ASG d 523      33.839  16.177  -9.348  0.00  0.00     0.087 C 
ATOM     16  OSA ASG d 523      29.201  14.365  -8.196  0.00  0.00    -0.572 OA
ATOM     17  O1  ASG d 523      34.353  15.869 -11.610  0.00  0.00    -0.369 OA
ATOM     18  N   ASG d 523      35.026  16.963  -9.042  0.00  0.00    -0.349 N 
ATOM     19  C5  ASG d 523      32.392  13.707  -9.587  0.00  0.00     0.090 C 
ATOM     20  H   ASG d 523      34.896  14.464 -10.196  0.00  0.00     0.132 H 
ATOM     21  H   ASG d 523      36.937  18.192  -8.052  0.00  0.00     0.040 H 
ATOM     22  H   ASG d 523      35.919  19.429  -7.356  0.00  0.00     0.040 H 
ATOM     23  H   ASG d 523      36.604  19.655  -8.947  0.00  0.00     0.040 H 
ATOM     24  H   ASG d 523      30.375  13.654 -10.270  0.00  0.00     0.078 H 
ATOM     25  H   ASG d 523      30.779  12.382  -9.149  0.00  0.00     0.078 H 
ATOM     26  H   ASG d 523      31.751  12.625 -11.814  0.00  0.00     0.209 HD
ATOM     27  H   ASG d 523      31.720  14.088  -7.626  0.00  0.00     0.093 H 
ATOM     28  H   ASG d 523      34.120  14.791  -7.738  0.00  0.00     0.091 H 
ATOM     29  H   ASG d 523      33.091  16.860  -9.694  0.00  0.00     0.084 H 
ATOM     30  H   ASG d 523      33.608  16.466 -11.783  0.00  0.00     0.212 HD
ATOM     31  H   ASG d 523      35.888  16.497  -8.954  0.00  0.00     0.163 HD
ATOM     32  H   ASG d 523      33.132  12.984  -9.314  0.00  0.00     0.090 H 
ATOM     33  C6  GCD d 525      32.613  13.503  -4.003  0.00  0.00     0.233 C 
ATOM     34  C5  GCD d 525      32.849  14.886  -4.449  0.00  0.00     0.147 C 
ATOM     35  O6B GCD d 525      33.221  12.549  -4.534  0.00  0.00    -0.642 OA
ATOM     36  O2  GCD d 525      34.593  17.644  -4.066  0.00  0.00    -0.388 OA
ATOM     37  C3  GCD d 525      32.209  17.332  -4.411  0.00  0.00     0.084 C 
ATOM     38  O3  GCD d 525      31.169  17.788  -5.274  0.00  0.00    -0.389 OA
ATOM     39  O6A GCD d 525      31.799  13.336  -3.077  0.00  0.00    -0.642 OA
ATOM     40  C2  GCD d 525      33.580  17.568  -5.068  0.00  0.00     0.111 C 
ATOM     41  O5  GCD d 525      33.972  15.200  -5.324  0.00  0.00    -0.311 OA
ATOM     42  C4  GCD d 525      32.034  15.869  -4.041  0.00  0.00    -0.034 C 
ATOM     43  C1  GCD d 525      33.944  16.437  -6.036  0.00  0.00     0.165 C 
ATOM     44  H   GCD d 525      34.379  18.356  -3.443  0.00  0.00     0.210 HD
ATOM     45  H   GCD d 525      32.155  17.896  -3.504  0.00  0.00     0.093 H 
ATOM     46  H   GCD d 525      31.197  17.291  -6.106  0.00  0.00     0.210 HD
ATOM     47  H   GCD d 525      33.519  18.487  -5.614  0.00  0.00     0.095 H 
ATOM     48  H   GCD d 525      31.238  15.616  -3.435  0.00  0.00     0.085 H 
ATOM     49  H   GCD d 525      34.916  16.593  -6.457  0.00  0.00     0.134 H 
ENDROOT
TORSDOF 12
ENDMDL
MODEL 69
REMARK VINA RESULT:      -6.0      2.547      5.587
REMARK  0 active torsions:
REMARK  status: ('A' for Active; 'I' for Inactive)
REMARK       I    between atoms: C1_1  and  O1_26 
REMARK       I    between atoms: C6_2  and  C5_3 
REMARK       I    between atoms: C8_4  and  C7_20 
REMARK       I    between atoms: O2_6  and  C2_15 
REMARK       I    between atoms: O4_7  and  C4_17 
REMARK       I    between atoms: O4_7  and  S_16 
REMARK       I    between atoms: C3_8  and  O3_9 
REMARK       I    between atoms: C6_10  and  C5_28 
REMARK       I    between atoms: C6_10  and  O6_14 
REMARK       I    between atoms: O3_13  and  C3_23 
REMARK       I    between atoms: O3_13  and  C1_30 
REMARK       I    between atoms: C7_20  and  N_27 
REMARK       I    between atoms: C2_24  and  N_27 
ROOT
ATOM      1  C1  ASG d 523      28.464  12.539  -6.547  0.00  0.00     0.151 C 
ATOM      2  C8  ASG d 523      32.185  10.411  -8.817  0.00  0.00    -0.003 C 
ATOM      3  O4  ASG d 523      30.423  14.995  -5.281  0.00  0.00    -0.246 OA
ATOM      4  C6  ASG d 523      27.910  14.982  -3.793  0.00  0.00     0.043 C 
ATOM      5  O5  ASG d 523      28.091  13.754  -5.863  0.00  0.00    -0.349 OA
ATOM      6  O3  ASG d 523      31.990  12.848  -5.356  0.00  0.00    -0.348 OA
ATOM      7  O6  ASG d 523      26.498  14.889  -3.820  0.00  0.00    -0.398 OA
ATOM      8  S   ASG d 523      31.211  16.235  -4.551  0.00  0.00     0.252 S 
ATOM      9  C4  ASG d 523      30.009  13.857  -4.506  0.00  0.00     0.114 C 
ATOM     10  OSB ASG d 523      31.270  17.484  -5.472  0.00  0.00    -0.572 OA
ATOM     11  C7  ASG d 523      31.488  11.647  -8.343  0.00  0.00     0.214 C 
ATOM     12  O7  ASG d 523      31.834  12.689  -8.829  0.00  0.00    -0.274 OA
ATOM     13  OSC ASG d 523      32.524  15.777  -4.225  0.00  0.00    -0.572 OA
ATOM     14  C3  ASG d 523      30.577  12.653  -5.249  0.00  0.00     0.094 C 
ATOM     15  C2  ASG d 523      29.988  12.622  -6.658  0.00  0.00     0.087 C 
ATOM     16  OSA ASG d 523      30.436  16.508  -3.370  0.00  0.00    -0.572 OA
ATOM     17  O1  ASG d 523      27.970  12.713  -7.839  0.00  0.00    -0.369 OA
ATOM     18  N   ASG d 523      30.538  11.502  -7.410  0.00  0.00    -0.349 N 
ATOM     19  C5  ASG d 523      28.494  13.765  -4.487  0.00  0.00     0.090 C 
ATOM     20  H   ASG d 523      28.126  11.636  -6.082  0.00  0.00     0.132 H 
ATOM     21  H   ASG d 523      31.786   9.558  -8.309  0.00  0.00     0.040 H 
ATOM     22  H   ASG d 523      33.232  10.491  -8.610  0.00  0.00     0.040 H 
ATOM     23  H   ASG d 523      32.037  10.300  -9.870  0.00  0.00     0.040 H 
ATOM     24  H   ASG d 523      28.222  15.870  -4.302  0.00  0.00     0.078 H 
ATOM     25  H   ASG d 523      28.253  15.021  -2.781  0.00  0.00     0.078 H 
ATOM     26  H   ASG d 523      26.194  14.854  -4.740  0.00  0.00     0.209 HD
ATOM     27  H   ASG d 523      30.347  13.915  -3.493  0.00  0.00     0.093 H 
ATOM     28  H   ASG d 523      30.346  11.742  -4.737  0.00  0.00     0.091 H 
ATOM     29  H   ASG d 523      30.247  13.513  -7.190  0.00  0.00     0.084 H 
ATOM     30  H   ASG d 523      28.309  13.544  -8.206  0.00  0.00     0.212 HD
ATOM     31  H   ASG d 523      30.195  10.599  -7.223  0.00  0.00     0.163 HD
ATOM     32  H   ASG d 523      28.155  12.895  -3.963  0.00  0.00     0.090 H 
ATOM     33  C6  GCD d 525      32.670  11.999  -1.214  0.00  0.00     0.233 C 
ATOM     34  C5  GCD d 525      33.139  12.066  -2.608  0.00  0.00     0.147 C 
ATOM     35  O6B GCD d 525      31.585  11.448  -0.931  0.00  0.00    -0.642 OA
ATOM     36  O2  GCD d 525      34.879  10.635  -4.999  0.00  0.00    -0.388 OA
ATOM     37  C3  GCD d 525      34.763  12.966  -4.325  0.00  0.00     0.084 C 
ATOM     38  O3  GCD d 525      34.524  14.250  -4.897  0.00  0.00    -0.389 OA
ATOM     39  O6A GCD d 525      33.404  12.501  -0.343  0.00  0.00    -0.642 OA
ATOM     40  C2  GCD d 525      34.201  11.867  -5.243  0.00  0.00     0.111 C 
ATOM     41  O5  GCD d 525      32.491  11.272  -3.646  0.00  0.00    -0.311 OA
ATOM     42  C4  GCD d 525      34.177  12.851  -2.928  0.00  0.00    -0.034 C 
ATOM     43  C1  GCD d 525      32.702  11.646  -5.007  0.00  0.00     0.165 C 
ATOM     44  H   GCD d 525      35.831  10.756  -5.145  0.00  0.00     0.210 HD
ATOM     45  H   GCD d 525      35.821  12.838  -4.235  0.00  0.00     0.093 H 
ATOM     46  H   GCD d 525      33.568  14.390  -4.989  0.00  0.00     0.210 HD
ATOM     47  H   GCD d 525      34.350  12.187  -6.253  0.00  0.00     0.095 H 
ATOM     48  H   GCD d 525      34.606  13.414  -2.177  0.00  0.00     0.085 H 
ATOM     49  H   GCD d 525      32.332  10.853  -5.623  0.00  0.00     0.134 H 
ENDROOT
TORSDOF 12
ENDMDL
MODEL 70
REMARK VINA RESULT:      -6.0      2.677      4.993
REMARK  0 active torsions:
REMARK  status: ('A' for Active; 'I' for Inactive)
REMARK       I    between atoms: C1_1  and  O1_26 
REMARK       I    between atoms: C6_2  and  C5_3 
REMARK       I    between atoms: C8_4  and  C7_20 
REMARK       I    between atoms: O2_6  and  C2_15 
REMARK       I    between atoms: O4_7  and  C4_17 
REMARK       I    between atoms: O4_7  and  S_16 
REMARK       I    between atoms: C3_8  and  O3_9 
REMARK       I    between atoms: C6_10  and  C5_28 
REMARK       I    between atoms: C6_10  and  O6_14 
REMARK       I    between atoms: O3_13  and  C3_23 
REMARK       I    between atoms: O3_13  and  C1_30 
REMARK       I    between atoms: C7_20  and  N_27 
REMARK       I    between atoms: C2_24  and  N_27 
ROOT
ATOM      1  C1  ASG d 523      29.764  10.652  -7.916  0.00  0.00     0.151 C 
ATOM      2  C8  ASG d 523      33.083  13.840  -9.450  0.00  0.00    -0.003 C 
ATOM      3  O4  ASG d 523      28.584  12.766  -5.548  0.00  0.00    -0.246 OA
ATOM      4  C6  ASG d 523      27.628  10.078  -4.922  0.00  0.00     0.043 C 
ATOM      5  O5  ASG d 523      28.587  10.542  -7.087  0.00  0.00    -0.349 OA
ATOM      6  O3  ASG d 523      31.184  13.301  -5.700  0.00  0.00    -0.348 OA
ATOM      7  O6  ASG d 523      27.078   8.860  -5.386  0.00  0.00    -0.398 OA
ATOM      8  S   ASG d 523      27.909  13.629  -4.327  0.00  0.00     0.252 S 
ATOM      9  C4  ASG d 523      29.492  11.692  -5.245  0.00  0.00     0.114 C 
ATOM     10  OSB ASG d 523      26.730  14.501  -4.840  0.00  0.00    -0.572 OA
ATOM     11  C7  ASG d 523      31.722  13.542  -8.905  0.00  0.00     0.214 C 
ATOM     12  O7  ASG d 523      30.900  14.414  -8.985  0.00  0.00    -0.274 OA
ATOM     13  OSC ASG d 523      28.935  14.442  -3.755  0.00  0.00    -0.572 OA
ATOM     14  C3  ASG d 523      30.739  11.993  -6.069  0.00  0.00     0.094 C 
ATOM     15  C2  ASG d 523      30.359  12.013  -7.548  0.00  0.00     0.087 C 
ATOM     16  OSA ASG d 523      27.442  12.635  -3.398  0.00  0.00    -0.572 OA
ATOM     17  O1  ASG d 523      29.256  10.786  -9.207  0.00  0.00    -0.369 OA
ATOM     18  N   ASG d 523      31.522  12.334  -8.363  0.00  0.00    -0.349 N 
ATOM     19  C5  ASG d 523      28.899  10.369  -5.698  0.00  0.00     0.090 C 
ATOM     20  H   ASG d 523      30.464   9.848  -7.818  0.00  0.00     0.132 H 
ATOM     21  H   ASG d 523      33.715  12.986  -9.317  0.00  0.00     0.040 H 
ATOM     22  H   ASG d 523      33.500  14.676  -8.930  0.00  0.00     0.040 H 
ATOM     23  H   ASG d 523      33.007  14.068 -10.492  0.00  0.00     0.040 H 
ATOM     24  H   ASG d 523      26.925  10.871  -5.073  0.00  0.00     0.078 H 
ATOM     25  H   ASG d 523      27.850  10.002  -3.878  0.00  0.00     0.078 H 
ATOM     26  H   ASG d 523      26.879   8.935  -6.332  0.00  0.00     0.209 HD
ATOM     27  H   ASG d 523      29.694  11.618  -4.198  0.00  0.00     0.093 H 
ATOM     28  H   ASG d 523      31.498  11.259  -5.896  0.00  0.00     0.091 H 
ATOM     29  H   ASG d 523      29.627  12.771  -7.734  0.00  0.00     0.084 H 
ATOM     30  H   ASG d 523      28.631  11.527  -9.234  0.00  0.00     0.212 HD
ATOM     31  H   ASG d 523      32.192  11.630  -8.522  0.00  0.00     0.163 HD
ATOM     32  H   ASG d 523      29.575   9.555  -5.537  0.00  0.00     0.090 H 
ATOM     33  C6  GCD d 525      32.668  11.996  -1.901  0.00  0.00     0.233 C 
ATOM     34  C5  GCD d 525      32.675  12.941  -3.029  0.00  0.00     0.147 C 
ATOM     35  O6B GCD d 525      32.703  10.763  -2.101  0.00  0.00    -0.642 OA
ATOM     36  O2  GCD d 525      34.478  14.766  -5.083  0.00  0.00    -0.388 OA
ATOM     37  C3  GCD d 525      32.423  15.301  -3.903  0.00  0.00     0.084 C 
ATOM     38  O3  GCD d 525      31.116  15.803  -4.173  0.00  0.00    -0.389 OA
ATOM     39  O6A GCD d 525      32.639  12.480  -0.755  0.00  0.00    -0.642 OA
ATOM     40  C2  GCD d 525      33.055  14.753  -5.194  0.00  0.00     0.111 C 
ATOM     41  O5  GCD d 525      32.985  12.482  -4.378  0.00  0.00    -0.311 OA
ATOM     42  C4  GCD d 525      32.407  14.238  -2.818  0.00  0.00    -0.034 C 
ATOM     43  C1  GCD d 525      32.607  13.315  -5.475  0.00  0.00     0.165 C 
ATOM     44  H   GCD d 525      34.780  15.671  -4.905  0.00  0.00     0.210 HD
ATOM     45  H   GCD d 525      33.018  16.113  -3.540  0.00  0.00     0.093 H 
ATOM     46  H   GCD d 525      30.555  15.083  -4.504  0.00  0.00     0.210 HD
ATOM     47  H   GCD d 525      32.733  15.381  -5.998  0.00  0.00     0.095 H 
ATOM     48  H   GCD d 525      32.175  14.532  -1.856  0.00  0.00     0.085 H 
ATOM     49  H   GCD d 525      33.083  12.932  -6.353  0.00  0.00     0.134 H 
ENDROOT
TORSDOF 12
ENDMDL
MODEL 71
REMARK VINA RESULT:      -6.0      2.502      5.471
REMARK  0 active torsions:
REMARK  status: ('A' for Active; 'I' for Inactive)
REMARK       I    between atoms: C1_1  and  O1_26 
REMARK       I    between atoms: C6_2  and  C5_3 
REMARK       I    between atoms: C8_4  and  C7_20 
REMARK       I    between atoms: O2_6  and  C2_15 
REMARK       I    between atoms: O4_7  and  C4_17 
REMARK       I    between atoms: O4_7  and  S_16 
REMARK       I    between atoms: C3_8  and  O3_9 
REMARK       I    between atoms: C6_10  and  C5_28 
REMARK       I    between atoms: C6_10  and  O6_14 
REMARK       I    between atoms: O3_13  and  C3_23 
REMARK       I    between atoms: O3_13  and  C1_30 
REMARK       I    between atoms: C7_20  and  N_27 
REMARK       I    between atoms: C2_24  and  N_27 
ROOT
ATOM      1  C1  ASG d 523      33.258  14.828  -2.966  0.00  0.00     0.151 C 
ATOM      2  C8  ASG d 523      31.207  18.788  -4.874  0.00  0.00    -0.003 C 
ATOM      3  O4  ASG d 523      32.439  12.913  -5.637  0.00  0.00    -0.246 OA
ATOM      4  C6  ASG d 523      33.148  11.136  -3.430  0.00  0.00     0.043 C 
ATOM      5  O5  ASG d 523      33.676  13.487  -3.301  0.00  0.00    -0.349 OA
ATOM      6  O3  ASG d 523      30.443  14.655  -5.414  0.00  0.00    -0.348 OA
ATOM      7  O6  ASG d 523      34.021  10.844  -2.355  0.00  0.00    -0.398 OA
ATOM      8  S   ASG d 523      32.099  11.824  -6.816  0.00  0.00     0.252 S 
ATOM      9  C4  ASG d 523      31.689  12.894  -4.410  0.00  0.00     0.114 C 
ATOM     10  OSB ASG d 523      33.217  11.796  -7.894  0.00  0.00    -0.572 OA
ATOM     11  C7  ASG d 523      31.968  17.510  -5.040  0.00  0.00     0.214 C 
ATOM     12  O7  ASG d 523      32.542  17.350  -6.083  0.00  0.00    -0.274 OA
ATOM     13  OSC ASG d 523      30.844  12.190  -7.390  0.00  0.00    -0.572 OA
ATOM     14  C3  ASG d 523      31.187  14.323  -4.239  0.00  0.00     0.094 C 
ATOM     15  C2  ASG d 523      32.391  15.259  -4.151  0.00  0.00     0.087 C 
ATOM     16  OSA ASG d 523      32.020  10.562  -6.130  0.00  0.00    -0.572 OA
ATOM     17  O1  ASG d 523      34.430  15.578  -3.049  0.00  0.00    -0.369 OA
ATOM     18  N   ASG d 523      31.947  16.640  -4.022  0.00  0.00    -0.349 N 
ATOM     19  C5  ASG d 523      32.601  12.540  -3.249  0.00  0.00     0.090 C 
ATOM     20  H   ASG d 523      32.759  14.925  -2.024  0.00  0.00     0.132 H 
ATOM     21  H   ASG d 523      30.746  18.806  -3.908  0.00  0.00     0.040 H 
ATOM     22  H   ASG d 523      30.453  18.855  -5.630  0.00  0.00     0.040 H 
ATOM     23  H   ASG d 523      31.878  19.616  -4.964  0.00  0.00     0.040 H 
ATOM     24  H   ASG d 523      33.684  11.076  -4.355  0.00  0.00     0.078 H 
ATOM     25  H   ASG d 523      32.343  10.432  -3.446  0.00  0.00     0.078 H 
ATOM     26  H   ASG d 523      34.749  11.485  -2.347  0.00  0.00     0.209 HD
ATOM     27  H   ASG d 523      30.896  12.177  -4.434  0.00  0.00     0.093 H 
ATOM     28  H   ASG d 523      30.588  14.416  -3.357  0.00  0.00     0.091 H 
ATOM     29  H   ASG d 523      32.975  15.200  -5.045  0.00  0.00     0.084 H 
ATOM     30  H   ASG d 523      34.835  15.450  -3.920  0.00  0.00     0.212 HD
ATOM     31  H   ASG d 523      31.617  16.947  -3.148  0.00  0.00     0.163 HD
ATOM     32  H   ASG d 523      32.083  12.572  -2.313  0.00  0.00     0.090 H 
ATOM     33  C6  GCD d 525      27.121  12.189  -4.308  0.00  0.00     0.233 C 
ATOM     34  C5  GCD d 525      27.687  13.331  -5.045  0.00  0.00     0.147 C 
ATOM     35  O6B GCD d 525      27.379  12.020  -3.097  0.00  0.00    -0.642 OA
ATOM     36  O2  GCD d 525      27.312  16.453  -5.996  0.00  0.00    -0.388 OA
ATOM     37  C3  GCD d 525      28.112  14.522  -7.235  0.00  0.00     0.084 C 
ATOM     38  O3  GCD d 525      29.228  14.130  -8.030  0.00  0.00    -0.389 OA
ATOM     39  O6A GCD d 525      26.375  11.419  -4.939  0.00  0.00    -0.642 OA
ATOM     40  C2  GCD d 525      28.488  15.729  -6.357  0.00  0.00     0.111 C 
ATOM     41  O5  GCD d 525      28.337  14.424  -4.331  0.00  0.00    -0.311 OA
ATOM     42  C4  GCD d 525      27.595  13.376  -6.382  0.00  0.00    -0.034 C 
ATOM     43  C1  GCD d 525      29.197  15.291  -5.070  0.00  0.00     0.165 C 
ATOM     44  H   GCD d 525      26.850  16.739  -6.800  0.00  0.00     0.210 HD
ATOM     45  H   GCD d 525      27.320  14.805  -7.896  0.00  0.00     0.093 H 
ATOM     46  H   GCD d 525      29.962  13.868  -7.452  0.00  0.00     0.210 HD
ATOM     47  H   GCD d 525      29.151  16.344  -6.928  0.00  0.00     0.095 H 
ATOM     48  H   GCD d 525      27.145  12.582  -6.862  0.00  0.00     0.085 H 
ATOM     49  H   GCD d 525      29.418  16.135  -4.451  0.00  0.00     0.134 H 
ENDROOT
TORSDOF 12
ENDMDL
MODEL 72
REMARK VINA RESULT:      -6.0      2.763      4.736
REMARK  0 active torsions:
REMARK  status: ('A' for Active; 'I' for Inactive)
REMARK       I    between atoms: C1_1  and  O1_26 
REMARK       I    between atoms: C6_2  and  C5_3 
REMARK       I    between atoms: C8_4  and  C7_20 
REMARK       I    between atoms: O2_6  and  C2_15 
REMARK       I    between atoms: O4_7  and  C4_17 
REMARK       I    between atoms: O4_7  and  S_16 
REMARK       I    between atoms: C3_8  and  O3_9 
REMARK       I    between atoms: C6_10  and  C5_28 
REMARK       I    between atoms: C6_10  and  O6_14 
REMARK       I    between atoms: O3_13  and  C3_23 
REMARK       I    between atoms: O3_13  and  C1_30 
REMARK       I    between atoms: C7_20  and  N_27 
REMARK       I    between atoms: C2_24  and  N_27 
ROOT
ATOM      1  C1  ASG d 523      33.879  11.331  -6.330  0.00  0.00     0.151 C 
ATOM      2  C8  ASG d 523      31.012  10.901 -10.220  0.00  0.00    -0.003 C 
ATOM      3  O4  ASG d 523      31.446  10.295  -4.214  0.00  0.00    -0.246 OA
ATOM      4  C6  ASG d 523      33.537  11.581  -2.632  0.00  0.00     0.043 C 
ATOM      5  O5  ASG d 523      33.961  10.984  -4.931  0.00  0.00    -0.349 OA
ATOM      6  O3  ASG d 523      30.161  11.617  -6.131  0.00  0.00    -0.348 OA
ATOM      7  O6  ASG d 523      34.918  11.760  -2.386  0.00  0.00    -0.398 OA
ATOM      8  S   ASG d 523      30.391   9.855  -3.038  0.00  0.00     0.252 S 
ATOM      9  C4  ASG d 523      31.782  11.682  -4.390  0.00  0.00     0.114 C 
ATOM     10  OSB ASG d 523      30.421   8.320  -2.801  0.00  0.00    -0.572 OA
ATOM     11  C7  ASG d 523      31.455  10.424  -8.873  0.00  0.00     0.214 C 
ATOM     12  O7  ASG d 523      31.127   9.313  -8.554  0.00  0.00    -0.274 OA
ATOM     13  OSC ASG d 523      29.090  10.285  -3.443  0.00  0.00    -0.572 OA
ATOM     14  C3  ASG d 523      31.523  11.961  -5.866  0.00  0.00     0.094 C 
ATOM     15  C2  ASG d 523      32.421  11.052  -6.703  0.00  0.00     0.087 C 
ATOM     16  OSA ASG d 523      30.841  10.561  -1.868  0.00  0.00    -0.572 OA
ATOM     17  O1  ASG d 523      34.637  10.350  -6.967  0.00  0.00    -0.369 OA
ATOM     18  N   ASG d 523      32.174  11.267  -8.121  0.00  0.00    -0.349 N 
ATOM     19  C5  ASG d 523      33.253  11.902  -4.088  0.00  0.00     0.090 C 
ATOM     20  H   ASG d 523      34.189  12.327  -6.569  0.00  0.00     0.132 H 
ATOM     21  H   ASG d 523      31.368  11.898 -10.380  0.00  0.00     0.040 H 
ATOM     22  H   ASG d 523      29.943  10.892 -10.268  0.00  0.00     0.040 H 
ATOM     23  H   ASG d 523      31.409  10.256 -10.975  0.00  0.00     0.040 H 
ATOM     24  H   ASG d 523      33.263  10.567  -2.428  0.00  0.00     0.078 H 
ATOM     25  H   ASG d 523      32.968  12.230  -2.000  0.00  0.00     0.078 H 
ATOM     26  H   ASG d 523      35.429  11.169  -2.961  0.00  0.00     0.209 HD
ATOM     27  H   ASG d 523      31.216  12.319  -3.743  0.00  0.00     0.093 H 
ATOM     28  H   ASG d 523      31.720  12.986  -6.102  0.00  0.00     0.091 H 
ATOM     29  H   ASG d 523      32.204  10.025  -6.499  0.00  0.00     0.084 H 
ATOM     30  H   ASG d 523      34.310   9.473  -6.713  0.00  0.00     0.212 HD
ATOM     31  H   ASG d 523      32.553  12.070  -8.547  0.00  0.00     0.163 HD
ATOM     32  H   ASG d 523      33.547  12.916  -4.263  0.00  0.00     0.090 H 
ATOM     33  C6  GCD d 525      28.633  15.053  -4.083  0.00  0.00     0.233 C 
ATOM     34  C5  GCD d 525      28.494  13.987  -5.088  0.00  0.00     0.147 C 
ATOM     35  O6B GCD d 525      29.674  15.743  -4.024  0.00  0.00    -0.642 OA
ATOM     36  O2  GCD d 525      27.503  13.163  -8.110  0.00  0.00    -0.388 OA
ATOM     37  C3  GCD d 525      27.227  11.996  -5.998  0.00  0.00     0.084 C 
ATOM     38  O3  GCD d 525      27.462  10.709  -5.431  0.00  0.00    -0.389 OA
ATOM     39  O6A GCD d 525      27.672  15.239  -3.314  0.00  0.00    -0.642 OA
ATOM     40  C2  GCD d 525      28.093  12.184  -7.256  0.00  0.00     0.111 C 
ATOM     41  O5  GCD d 525      29.439  13.882  -6.193  0.00  0.00    -0.311 OA
ATOM     42  C4  GCD d 525      27.484  13.110  -4.997  0.00  0.00    -0.034 C 
ATOM     43  C1  GCD d 525      29.511  12.645  -6.901  0.00  0.00     0.165 C 
ATOM     44  H   GCD d 525      26.603  12.887  -8.346  0.00  0.00     0.210 HD
ATOM     45  H   GCD d 525      26.195  12.051  -6.273  0.00  0.00     0.093 H 
ATOM     46  H   GCD d 525      28.394  10.634  -5.172  0.00  0.00     0.210 HD
ATOM     47  H   GCD d 525      28.148  11.236  -7.749  0.00  0.00     0.095 H 
ATOM     48  H   GCD d 525      26.839  13.197  -4.196  0.00  0.00     0.085 H 
ATOM     49  H   GCD d 525      30.090  12.810  -7.786  0.00  0.00     0.134 H 
ENDROOT
TORSDOF 12
ENDMDL
MODEL 73
REMARK VINA RESULT:      -6.0      3.397      6.971
REMARK  0 active torsions:
REMARK  status: ('A' for Active; 'I' for Inactive)
REMARK       I    between atoms: C1_1  and  O1_26 
REMARK       I    between atoms: C6_2  and  C5_3 
REMARK       I    between atoms: C8_4  and  C7_20 
REMARK       I    between atoms: O2_6  and  C2_15 
REMARK       I    between atoms: O4_7  and  C4_17 
REMARK       I    between atoms: O4_7  and  S_16 
REMARK       I    between atoms: C3_8  and  O3_9 
REMARK       I    between atoms: C6_10  and  C5_28 
REMARK       I    between atoms: C6_10  and  O6_14 
REMARK       I    between atoms: O3_13  and  C3_23 
REMARK       I    between atoms: O3_13  and  C1_30 
REMARK       I    between atoms: C7_20  and  N_27 
REMARK       I    between atoms: C2_24  and  N_27 
ROOT
ATOM      1  C1  ASG d 523      34.954  16.472  -7.238  0.00  0.00     0.151 C 
ATOM      2  C8  ASG d 523      34.654  13.240  -3.633  0.00  0.00    -0.003 C 
ATOM      3  O4  ASG d 523      32.288  18.229  -6.108  0.00  0.00    -0.246 OA
ATOM      4  C6  ASG d 523      32.800  19.032  -8.869  0.00  0.00     0.043 C 
ATOM      5  O5  ASG d 523      34.454  17.759  -7.658  0.00  0.00    -0.349 OA
ATOM      6  O3  ASG d 523      31.746  15.701  -5.488  0.00  0.00    -0.348 OA
ATOM      7  O6  ASG d 523      33.744  19.382  -9.863  0.00  0.00    -0.398 OA
ATOM      8  S   ASG d 523      31.003  19.181  -5.740  0.00  0.00     0.252 S 
ATOM      9  C4  ASG d 523      32.195  17.295  -7.198  0.00  0.00     0.114 C 
ATOM     10  OSB ASG d 523      31.410  20.327  -4.775  0.00  0.00    -0.572 OA
ATOM     11  C7  ASG d 523      34.515  14.642  -4.136  0.00  0.00     0.214 C 
ATOM     12  O7  ASG d 523      34.454  15.513  -3.311  0.00  0.00    -0.274 OA
ATOM     13  OSC ASG d 523      30.005  18.346  -5.151  0.00  0.00    -0.572 OA
ATOM     14  C3  ASG d 523      32.611  15.956  -6.598  0.00  0.00     0.094 C 
ATOM     15  C2  ASG d 523      34.041  16.075  -6.074  0.00  0.00     0.087 C 
ATOM     16  OSA ASG d 523      30.572  19.709  -7.007  0.00  0.00    -0.572 OA
ATOM     17  O1  ASG d 523      36.197  16.759  -6.676  0.00  0.00    -0.369 OA
ATOM     18  N   ASG d 523      34.460  14.822  -5.462  0.00  0.00    -0.349 N 
ATOM     19  C5  ASG d 523      33.172  17.678  -8.295  0.00  0.00     0.090 C 
ATOM     20  H   ASG d 523      34.998  15.730  -8.008  0.00  0.00     0.132 H 
ATOM     21  H   ASG d 523      34.697  12.565  -4.463  0.00  0.00     0.040 H 
ATOM     22  H   ASG d 523      33.813  12.996  -3.019  0.00  0.00     0.040 H 
ATOM     23  H   ASG d 523      35.552  13.155  -3.059  0.00  0.00     0.040 H 
ATOM     24  H   ASG d 523      32.808  19.767  -8.091  0.00  0.00     0.078 H 
ATOM     25  H   ASG d 523      31.820  18.988  -9.297  0.00  0.00     0.078 H 
ATOM     26  H   ASG d 523      34.629  19.421  -9.469  0.00  0.00     0.209 HD
ATOM     27  H   ASG d 523      31.215  17.270  -7.625  0.00  0.00     0.093 H 
ATOM     28  H   ASG d 523      32.553  15.175  -7.327  0.00  0.00     0.091 H 
ATOM     29  H   ASG d 523      34.100  16.829  -5.318  0.00  0.00     0.084 H 
ATOM     30  H   ASG d 523      36.093  17.435  -5.988  0.00  0.00     0.212 HD
ATOM     31  H   ASG d 523      34.714  14.074  -6.049  0.00  0.00     0.163 HD
ATOM     32  H   ASG d 523      33.167  16.969  -9.097  0.00  0.00     0.090 H 
ATOM     33  C6  GCD d 525      28.396  14.784  -7.994  0.00  0.00     0.233 C 
ATOM     34  C5  GCD d 525      29.117  14.668  -6.716  0.00  0.00     0.147 C 
ATOM     35  O6B GCD d 525      28.989  14.604  -9.079  0.00  0.00    -0.642 OA
ATOM     36  O2  GCD d 525      30.047  12.710  -4.246  0.00  0.00    -0.388 OA
ATOM     37  C3  GCD d 525      29.177  14.978  -4.206  0.00  0.00     0.084 C 
ATOM     38  O3  GCD d 525      29.510  16.258  -3.675  0.00  0.00    -0.389 OA
ATOM     39  O6A GCD d 525      27.183  15.055  -7.939  0.00  0.00    -0.642 OA
ATOM     40  C2  GCD d 525      30.429  14.085  -4.256  0.00  0.00     0.111 C 
ATOM     41  O5  GCD d 525      30.455  14.090  -6.670  0.00  0.00    -0.311 OA
ATOM     42  C4  GCD d 525      28.538  15.084  -5.581  0.00  0.00    -0.034 C 
ATOM     43  C1  GCD d 525      31.258  14.346  -5.518  0.00  0.00     0.165 C 
ATOM     44  H   GCD d 525      29.521  12.526  -3.453  0.00  0.00     0.210 HD
ATOM     45  H   GCD d 525      28.454  14.530  -3.557  0.00  0.00     0.093 H 
ATOM     46  H   GCD d 525      30.165  16.686  -4.249  0.00  0.00     0.210 HD
ATOM     47  H   GCD d 525      31.021  14.319  -3.396  0.00  0.00     0.095 H 
ATOM     48  H   GCD d 525      27.597  15.504  -5.644  0.00  0.00     0.085 H 
ATOM     49  H   GCD d 525      32.105  13.692  -5.560  0.00  0.00     0.134 H 
ENDROOT
TORSDOF 12
ENDMDL
MODEL 74
REMARK VINA RESULT:      -6.0      2.593      4.174
REMARK  0 active torsions:
REMARK  status: ('A' for Active; 'I' for Inactive)
REMARK       I    between atoms: C1_1  and  O1_26 
REMARK       I    between atoms: C6_2  and  C5_3 
REMARK       I    between atoms: C8_4  and  C7_20 
REMARK       I    between atoms: O2_6  and  C2_15 
REMARK       I    between atoms: O4_7  and  C4_17 
REMARK       I    between atoms: O4_7  and  S_16 
REMARK       I    between atoms: C3_8  and  O3_9 
REMARK       I    between atoms: C6_10  and  C5_28 
REMARK       I    between atoms: C6_10  and  O6_14 
REMARK       I    between atoms: O3_13  and  C3_23 
REMARK       I    between atoms: O3_13  and  C1_30 
REMARK       I    between atoms: C7_20  and  N_27 
REMARK       I    between atoms: C2_24  and  N_27 
ROOT
ATOM      1  C1  ASG d 523      34.051   9.174  -6.230  0.00  0.00     0.151 C 
ATOM      2  C8  ASG d 523      31.901  10.830 -10.251  0.00  0.00    -0.003 C 
ATOM      3  O4  ASG d 523      31.262   9.608  -4.359  0.00  0.00    -0.246 OA
ATOM      4  C6  ASG d 523      33.528   9.282  -2.547  0.00  0.00     0.043 C 
ATOM      5  O5  ASG d 523      33.767   8.736  -4.885  0.00  0.00    -0.349 OA
ATOM      6  O3  ASG d 523      31.197  11.581  -6.141  0.00  0.00    -0.348 OA
ATOM      7  O6  ASG d 523      34.721   8.590  -2.226  0.00  0.00    -0.398 OA
ATOM      8  S   ASG d 523      30.030   9.783  -3.289  0.00  0.00     0.252 S 
ATOM      9  C4  ASG d 523      32.358  10.539  -4.344  0.00  0.00     0.114 C 
ATOM     10  OSB ASG d 523      29.136   8.513  -3.248  0.00  0.00    -0.572 OA
ATOM     11  C7  ASG d 523      31.837  10.078  -8.959  0.00  0.00     0.214 C 
ATOM     12  O7  ASG d 523      30.894   9.353  -8.797  0.00  0.00    -0.274 OA
ATOM     13  OSC ASG d 523      29.274  10.927  -3.687  0.00  0.00    -0.572 OA
ATOM     14  C3  ASG d 523      32.468  11.033  -5.781  0.00  0.00     0.094 C 
ATOM     15  C2  ASG d 523      32.752   9.840  -6.691  0.00  0.00     0.087 C 
ATOM     16  OSA ASG d 523      30.680   9.991  -2.023  0.00  0.00    -0.572 OA
ATOM     17  O1  ASG d 523      34.159   7.989  -6.956  0.00  0.00    -0.369 OA
ATOM     18  N   ASG d 523      32.829  10.272  -8.080  0.00  0.00    -0.349 N 
ATOM     19  C5  ASG d 523      33.641   9.823  -3.959  0.00  0.00     0.090 C 
ATOM     20  H   ASG d 523      34.906   9.810  -6.328  0.00  0.00     0.132 H 
ATOM     21  H   ASG d 523      32.784  11.435 -10.269  0.00  0.00     0.040 H 
ATOM     22  H   ASG d 523      31.039  11.457 -10.341  0.00  0.00     0.040 H 
ATOM     23  H   ASG d 523      31.926  10.138 -11.066  0.00  0.00     0.040 H 
ATOM     24  H   ASG d 523      32.696   8.612  -2.484  0.00  0.00     0.078 H 
ATOM     25  H   ASG d 523      33.380  10.088  -1.859  0.00  0.00     0.078 H 
ATOM     26  H   ASG d 523      34.849   7.861  -2.852  0.00  0.00     0.209 HD
ATOM     27  H   ASG d 523      32.203  11.332  -3.644  0.00  0.00     0.093 H 
ATOM     28  H   ASG d 523      33.248  11.760  -5.878  0.00  0.00     0.091 H 
ATOM     29  H   ASG d 523      31.958   9.126  -6.629  0.00  0.00     0.084 H 
ATOM     30  H   ASG d 523      33.359   7.457  -6.829  0.00  0.00     0.212 HD
ATOM     31  H   ASG d 523      33.646  10.727  -8.385  0.00  0.00     0.163 HD
ATOM     32  H   ASG d 523      34.486  10.478  -3.993  0.00  0.00     0.090 H 
ATOM     33  C6  GCD d 525      31.747  15.080  -3.734  0.00  0.00     0.233 C 
ATOM     34  C5  GCD d 525      31.120  14.386  -4.870  0.00  0.00     0.147 C 
ATOM     35  O6B GCD d 525      32.981  15.015  -3.548  0.00  0.00    -0.642 OA
ATOM     36  O2  GCD d 525      30.163  14.549  -8.009  0.00  0.00    -0.388 OA
ATOM     37  C3  GCD d 525      29.037  13.605  -6.074  0.00  0.00     0.084 C 
ATOM     38  O3  GCD d 525      28.418  12.388  -5.667  0.00  0.00    -0.389 OA
ATOM     39  O6A GCD d 525      30.998  15.735  -2.985  0.00  0.00    -0.642 OA
ATOM     40  C2  GCD d 525      29.978  13.346  -7.264  0.00  0.00     0.111 C 
ATOM     41  O5  GCD d 525      31.939  13.832  -5.942  0.00  0.00    -0.311 OA
ATOM     42  C4  GCD d 525      29.786  14.269  -4.931  0.00  0.00    -0.034 C 
ATOM     43  C1  GCD d 525      31.353  12.852  -6.799  0.00  0.00     0.165 C 
ATOM     44  H   GCD d 525      29.301  14.877  -8.312  0.00  0.00     0.210 HD
ATOM     45  H   GCD d 525      28.266  14.280  -6.380  0.00  0.00     0.093 H 
ATOM     46  H   GCD d 525      29.099  11.757  -5.383  0.00  0.00     0.210 HD
ATOM     47  H   GCD d 525      29.524  12.592  -7.871  0.00  0.00     0.095 H 
ATOM     48  H   GCD d 525      29.232  14.655  -4.151  0.00  0.00     0.085 H 
ATOM     49  H   GCD d 525      32.010  12.713  -7.632  0.00  0.00     0.134 H 
ENDROOT
TORSDOF 12
ENDMDL
MODEL 75
REMARK VINA RESULT:      -6.0      2.730      4.271
REMARK  0 active torsions:
REMARK  status: ('A' for Active; 'I' for Inactive)
REMARK       I    between atoms: C1_1  and  O1_26 
REMARK       I    between atoms: C6_2  and  C5_3 
REMARK       I    between atoms: C8_4  and  C7_20 
REMARK       I    between atoms: O2_6  and  C2_15 
REMARK       I    between atoms: O4_7  and  C4_17 
REMARK       I    between atoms: O4_7  and  S_16 
REMARK       I    between atoms: C3_8  and  O3_9 
REMARK       I    between atoms: C6_10  and  C5_28 
REMARK       I    between atoms: C6_10  and  O6_14 
REMARK       I    between atoms: O3_13  and  C3_23 
REMARK       I    between atoms: O3_13  and  C1_30 
REMARK       I    between atoms: C7_20  and  N_27 
REMARK       I    between atoms: C2_24  and  N_27 
ROOT
ATOM      1  C1  ASG d 523      31.619  10.472  -2.238  0.00  0.00     0.151 C 
ATOM      2  C8  ASG d 523      28.268   7.875  -4.595  0.00  0.00    -0.003 C 
ATOM      3  O4  ASG d 523      30.713  13.350  -3.776  0.00  0.00    -0.246 OA
ATOM      4  C6  ASG d 523      33.343  13.754  -2.573  0.00  0.00     0.043 C 
ATOM      5  O5  ASG d 523      32.021  11.831  -1.961  0.00  0.00    -0.349 OA
ATOM      6  O3  ASG d 523      30.308  11.452  -5.594  0.00  0.00    -0.348 OA
ATOM      7  O6  ASG d 523      34.197  13.567  -1.460  0.00  0.00    -0.398 OA
ATOM      8  S   ASG d 523      30.444  14.825  -4.441  0.00  0.00     0.252 S 
ATOM      9  C4  ASG d 523      31.857  12.581  -4.184  0.00  0.00     0.114 C 
ATOM     10  OSB ASG d 523      29.373  15.616  -3.642  0.00  0.00    -0.572 OA
ATOM     11  C7  ASG d 523      28.702   9.149  -3.941  0.00  0.00     0.214 C 
ATOM     12  O7  ASG d 523      27.841   9.939  -3.661  0.00  0.00    -0.274 OA
ATOM     13  OSC ASG d 523      30.026  14.619  -5.791  0.00  0.00    -0.572 OA
ATOM     14  C3  ASG d 523      31.291  11.222  -4.581  0.00  0.00     0.094 C 
ATOM     15  C2  ASG d 523      30.597  10.605  -3.369  0.00  0.00     0.087 C 
ATOM     16  OSA ASG d 523      31.720  15.487  -4.377  0.00  0.00    -0.572 OA
ATOM     17  O1  ASG d 523      30.900  10.095  -1.105  0.00  0.00    -0.369 OA
ATOM     18  N   ASG d 523      30.012   9.319  -3.724  0.00  0.00    -0.349 N 
ATOM     19  C5  ASG d 523      32.808  12.404  -3.013  0.00  0.00     0.090 C 
ATOM     20  H   ASG d 523      32.420   9.802  -2.473  0.00  0.00     0.132 H 
ATOM     21  H   ASG d 523      29.125   7.264  -4.790  0.00  0.00     0.040 H 
ATOM     22  H   ASG d 523      27.772   8.098  -5.516  0.00  0.00     0.040 H 
ATOM     23  H   ASG d 523      27.598   7.352  -3.946  0.00  0.00     0.040 H 
ATOM     24  H   ASG d 523      32.528  14.391  -2.297  0.00  0.00     0.078 H 
ATOM     25  H   ASG d 523      33.885  14.209  -3.375  0.00  0.00     0.078 H 
ATOM     26  H   ASG d 523      33.700  13.155  -0.737  0.00  0.00     0.209 HD
ATOM     27  H   ASG d 523      32.398  13.052  -4.977  0.00  0.00     0.093 H 
ATOM     28  H   ASG d 523      32.066  10.571  -4.929  0.00  0.00     0.091 H 
ATOM     29  H   ASG d 523      29.796  11.232  -3.038  0.00  0.00     0.084 H 
ATOM     30  H   ASG d 523      30.191  10.736  -0.943  0.00  0.00     0.212 HD
ATOM     31  H   ASG d 523      30.608   8.540  -3.807  0.00  0.00     0.163 HD
ATOM     32  H   ASG d 523      33.644  11.788  -3.270  0.00  0.00     0.090 H 
ATOM     33  C6  GCD d 525      33.239  12.336  -8.588  0.00  0.00     0.233 C 
ATOM     34  C5  GCD d 525      31.894  11.883  -8.199  0.00  0.00     0.147 C 
ATOM     35  O6B GCD d 525      34.256  11.869  -8.031  0.00  0.00    -0.642 OA
ATOM     36  O2  GCD d 525      29.450   9.749  -8.715  0.00  0.00    -0.388 OA
ATOM     37  C3  GCD d 525      29.381  12.145  -8.320  0.00  0.00     0.084 C 
ATOM     38  O3  GCD d 525      28.742  13.085  -7.459  0.00  0.00    -0.389 OA
ATOM     39  O6A GCD d 525      33.313  13.185  -9.495  0.00  0.00    -0.642 OA
ATOM     40  C2  GCD d 525      29.334  10.741  -7.694  0.00  0.00     0.111 C 
ATOM     41  O5  GCD d 525      31.724  10.707  -7.354  0.00  0.00    -0.311 OA
ATOM     42  C4  GCD d 525      30.813  12.548  -8.632  0.00  0.00    -0.034 C 
ATOM     43  C1  GCD d 525      30.473  10.532  -6.689  0.00  0.00     0.165 C 
ATOM     44  H   GCD d 525      28.735   9.866  -9.361  0.00  0.00     0.210 HD
ATOM     45  H   GCD d 525      28.848  12.133  -9.247  0.00  0.00     0.093 H 
ATOM     46  H   GCD d 525      29.208  13.115  -6.609  0.00  0.00     0.210 HD
ATOM     47  H   GCD d 525      28.399  10.650  -7.183  0.00  0.00     0.095 H 
ATOM     48  H   GCD d 525      30.963  13.386  -9.214  0.00  0.00     0.085 H 
ATOM     49  H   GCD d 525      30.453   9.539  -6.291  0.00  0.00     0.134 H 
ENDROOT
TORSDOF 12
ENDMDL
MODEL 76
REMARK VINA RESULT:      -6.0      3.090      5.462
REMARK  0 active torsions:
REMARK  status: ('A' for Active; 'I' for Inactive)
REMARK       I    between atoms: C1_1  and  O1_26 
REMARK       I    between atoms: C6_2  and  C5_3 
REMARK       I    between atoms: C8_4  and  C7_20 
REMARK       I    between atoms: O2_6  and  C2_15 
REMARK       I    between atoms: O4_7  and  C4_17 
REMARK       I    between atoms: O4_7  and  S_16 
REMARK       I    between atoms: C3_8  and  O3_9 
REMARK       I    between atoms: C6_10  and  C5_28 
REMARK       I    between atoms: C6_10  and  O6_14 
REMARK       I    between atoms: O3_13  and  C3_23 
REMARK       I    between atoms: O3_13  and  C1_30 
REMARK       I    between atoms: C7_20  and  N_27 
REMARK       I    between atoms: C2_24  and  N_27 
ROOT
ATOM      1  C1  ASG d 523      34.668  11.099  -3.606  0.00  0.00     0.151 C 
ATOM      2  C8  ASG d 523      35.152   7.878  -7.201  0.00  0.00    -0.003 C 
ATOM      3  O4  ASG d 523      31.429  11.720  -4.374  0.00  0.00    -0.246 OA
ATOM      4  C6  ASG d 523      32.377  13.868  -2.638  0.00  0.00     0.043 C 
ATOM      5  O5  ASG d 523      33.675  11.848  -2.874  0.00  0.00    -0.349 OA
ATOM      6  O3  ASG d 523      32.596  11.221  -6.711  0.00  0.00    -0.348 OA
ATOM      7  O6  ASG d 523      33.112  14.250  -1.491  0.00  0.00    -0.398 OA
ATOM      8  S   ASG d 523      29.872  12.179  -4.616  0.00  0.00     0.252 S 
ATOM      9  C4  ASG d 523      32.500  12.594  -4.769  0.00  0.00     0.114 C 
ATOM     10  OSB ASG d 523      28.889  11.266  -3.834  0.00  0.00    -0.572 OA
ATOM     11  C7  ASG d 523      34.322   8.519  -6.134  0.00  0.00     0.214 C 
ATOM     12  O7  ASG d 523      33.323   7.942  -5.800  0.00  0.00    -0.274 OA
ATOM     13  OSC ASG d 523      29.619  12.119  -6.020  0.00  0.00    -0.572 OA
ATOM     14  C3  ASG d 523      33.402  11.732  -5.645  0.00  0.00     0.094 C 
ATOM     15  C2  ASG d 523      33.909  10.553  -4.818  0.00  0.00     0.087 C 
ATOM     16  OSA ASG d 523      29.815  13.530  -4.125  0.00  0.00    -0.572 OA
ATOM     17  O1  ASG d 523      34.935  10.002  -2.788  0.00  0.00    -0.369 OA
ATOM     18  N   ASG d 523      34.748   9.687  -5.636  0.00  0.00    -0.349 N 
ATOM     19  C5  ASG d 523      33.276  13.049  -3.546  0.00  0.00     0.090 C 
ATOM     20  H   ASG d 523      35.545  11.651  -3.874  0.00  0.00     0.132 H 
ATOM     21  H   ASG d 523      36.008   8.489  -7.403  0.00  0.00     0.040 H 
ATOM     22  H   ASG d 523      34.570   7.774  -8.092  0.00  0.00     0.040 H 
ATOM     23  H   ASG d 523      35.474   6.913  -6.870  0.00  0.00     0.040 H 
ATOM     24  H   ASG d 523      31.532  13.281  -2.345  0.00  0.00     0.078 H 
ATOM     25  H   ASG d 523      32.034  14.739  -3.156  0.00  0.00     0.078 H 
ATOM     26  H   ASG d 523      33.420  13.457  -1.025  0.00  0.00     0.209 HD
ATOM     27  H   ASG d 523      32.143  13.467  -5.274  0.00  0.00     0.093 H 
ATOM     28  H   ASG d 523      34.229  12.299  -6.018  0.00  0.00     0.091 H 
ATOM     29  H   ASG d 523      33.090   9.959  -4.473  0.00  0.00     0.084 H 
ATOM     30  H   ASG d 523      34.106   9.544  -2.580  0.00  0.00     0.212 HD
ATOM     31  H   ASG d 523      35.669   9.975  -5.832  0.00  0.00     0.163 HD
ATOM     32  H   ASG d 523      34.115  13.658  -3.812  0.00  0.00     0.090 H 
ATOM     33  C6  GCD d 525      32.410  15.001  -8.715  0.00  0.00     0.233 C 
ATOM     34  C5  GCD d 525      32.343  13.531  -8.732  0.00  0.00     0.147 C 
ATOM     35  O6B GCD d 525      33.351  15.591  -8.140  0.00  0.00    -0.642 OA
ATOM     36  O2  GCD d 525      33.148  10.756 -10.296  0.00  0.00    -0.388 OA
ATOM     37  C3  GCD d 525      31.062  11.410  -9.236  0.00  0.00     0.084 C 
ATOM     38  O3  GCD d 525      30.134  10.917  -8.273  0.00  0.00    -0.389 OA
ATOM     39  O6A GCD d 525      31.504  15.619  -9.302  0.00  0.00    -0.642 OA
ATOM     40  C2  GCD d 525      32.419  10.704  -9.070  0.00  0.00     0.111 C 
ATOM     41  O5  GCD d 525      33.490  12.732  -8.316  0.00  0.00    -0.311 OA
ATOM     42  C4  GCD d 525      31.225  12.917  -9.145  0.00  0.00    -0.034 C 
ATOM     43  C1  GCD d 525      33.268  11.364  -7.977  0.00  0.00     0.165 C 
ATOM     44  H   GCD d 525      32.625  10.342 -11.000  0.00  0.00     0.210 HD
ATOM     45  H   GCD d 525      30.673  11.193 -10.209  0.00  0.00     0.093 H 
ATOM     46  H   GCD d 525      30.465  11.102  -7.380  0.00  0.00     0.210 HD
ATOM     47  H   GCD d 525      32.220   9.691  -8.791  0.00  0.00     0.095 H 
ATOM     48  H   GCD d 525      30.423  13.507  -9.418  0.00  0.00     0.085 H 
ATOM     49  H   GCD d 525      34.224  10.889  -7.898  0.00  0.00     0.134 H 
ENDROOT
TORSDOF 12
ENDMDL
MODEL 77
REMARK VINA RESULT:      -6.0      2.295      6.097
REMARK  0 active torsions:
REMARK  status: ('A' for Active; 'I' for Inactive)
REMARK       I    between atoms: C1_1  and  O1_26 
REMARK       I    between atoms: C6_2  and  C5_3 
REMARK       I    between atoms: C8_4  and  C7_20 
REMARK       I    between atoms: O2_6  and  C2_15 
REMARK       I    between atoms: O4_7  and  C4_17 
REMARK       I    between atoms: O4_7  and  S_16 
REMARK       I    between atoms: C3_8  and  O3_9 
REMARK       I    between atoms: C6_10  and  C5_28 
REMARK       I    between atoms: C6_10  and  O6_14 
REMARK       I    between atoms: O3_13  and  C3_23 
REMARK       I    between atoms: O3_13  and  C1_30 
REMARK       I    between atoms: C7_20  and  N_27 
REMARK       I    between atoms: C2_24  and  N_27 
ROOT
ATOM      1  C1  ASG d 523      30.311  15.362  -6.735  0.00  0.00     0.151 C 
ATOM      2  C8  ASG d 523      32.368  12.459 -10.033  0.00  0.00    -0.003 C 
ATOM      3  O4  ASG d 523      32.594  14.565  -4.364  0.00  0.00    -0.246 OA
ATOM      4  C6  ASG d 523      30.315  15.822  -3.041  0.00  0.00     0.043 C 
ATOM      5  O5  ASG d 523      30.540  15.957  -5.440  0.00  0.00    -0.349 OA
ATOM      6  O3  ASG d 523      32.301  12.344  -5.797  0.00  0.00    -0.348 OA
ATOM      7  O6  ASG d 523      29.346  16.853  -3.038  0.00  0.00    -0.398 OA
ATOM      8  S   ASG d 523      33.577  14.275  -3.082  0.00  0.00     0.252 S 
ATOM      9  C4  ASG d 523      31.281  13.980  -4.403  0.00  0.00     0.114 C 
ATOM     10  OSB ASG d 523      34.791  15.244  -3.074  0.00  0.00    -0.572 OA
ATOM     11  C7  ASG d 523      32.487  13.399  -8.874  0.00  0.00     0.214 C 
ATOM     12  O7  ASG d 523      33.573  13.863  -8.658  0.00  0.00    -0.274 OA
ATOM     13  OSC ASG d 523      34.009  12.916  -3.170  0.00  0.00    -0.572 OA
ATOM     14  C3  ASG d 523      31.212  13.269  -5.749  0.00  0.00     0.094 C 
ATOM     15  C2  ASG d 523      31.406  14.299  -6.860  0.00  0.00     0.087 C 
ATOM     16  OSA ASG d 523      32.742  14.492  -1.931  0.00  0.00    -0.572 OA
ATOM     17  O1  ASG d 523      30.646  16.372  -7.635  0.00  0.00    -0.369 OA
ATOM     18  N   ASG d 523      31.380  13.647  -8.162  0.00  0.00    -0.349 N 
ATOM     19  C5  ASG d 523      30.226  15.071  -4.357  0.00  0.00     0.090 C 
ATOM     20  H   ASG d 523      29.327  14.970  -6.885  0.00  0.00     0.132 H 
ATOM     21  H   ASG d 523      31.356  12.120 -10.115  0.00  0.00     0.040 H 
ATOM     22  H   ASG d 523      33.013  11.620  -9.879  0.00  0.00     0.040 H 
ATOM     23  H   ASG d 523      32.648  12.965 -10.932  0.00  0.00     0.040 H 
ATOM     24  H   ASG d 523      31.291  16.245  -2.934  0.00  0.00     0.078 H 
ATOM     25  H   ASG d 523      30.133  15.151  -2.228  0.00  0.00     0.078 H 
ATOM     26  H   ASG d 523      29.516  17.458  -3.777  0.00  0.00     0.209 HD
ATOM     27  H   ASG d 523      31.108  13.322  -3.577  0.00  0.00     0.093 H 
ATOM     28  H   ASG d 523      30.272  12.772  -5.872  0.00  0.00     0.091 H 
ATOM     29  H   ASG d 523      32.359  14.774  -6.766  0.00  0.00     0.084 H 
ATOM     30  H   ASG d 523      31.545  16.686  -7.450  0.00  0.00     0.212 HD
ATOM     31  H   ASG d 523      30.510  13.376  -8.534  0.00  0.00     0.163 HD
ATOM     32  H   ASG d 523      29.237  14.671  -4.440  0.00  0.00     0.090 H 
ATOM     33  C6  GCD d 525      30.456   9.642  -3.035  0.00  0.00     0.233 C 
ATOM     34  C5  GCD d 525      31.395   9.915  -4.135  0.00  0.00     0.147 C 
ATOM     35  O6B GCD d 525      29.282  10.067  -3.078  0.00  0.00    -0.642 OA
ATOM     36  O2  GCD d 525      32.648   8.908  -7.000  0.00  0.00    -0.388 OA
ATOM     37  C3  GCD d 525      33.748   9.868  -5.059  0.00  0.00     0.084 C 
ATOM     38  O3  GCD d 525      34.641  10.932  -4.734  0.00  0.00    -0.389 OA
ATOM     39  O6A GCD d 525      30.880   8.967  -2.080  0.00  0.00    -0.642 OA
ATOM     40  C2  GCD d 525      33.081  10.138  -6.419  0.00  0.00     0.111 C 
ATOM     41  O5  GCD d 525      30.915  10.452  -5.402  0.00  0.00    -0.311 OA
ATOM     42  C4  GCD d 525      32.702   9.658  -3.979  0.00  0.00    -0.034 C 
ATOM     43  C1  GCD d 525      31.864  11.059  -6.278  0.00  0.00     0.165 C 
ATOM     44  H   GCD d 525      33.406   8.311  -7.098  0.00  0.00     0.210 HD
ATOM     45  H   GCD d 525      34.321   8.967  -5.124  0.00  0.00     0.093 H 
ATOM     46  H   GCD d 525      34.144  11.763  -4.669  0.00  0.00     0.210 HD
ATOM     47  H   GCD d 525      33.808  10.614  -7.043  0.00  0.00     0.095 H 
ATOM     48  H   GCD d 525      33.016   9.294  -3.066  0.00  0.00     0.085 H 
ATOM     49  H   GCD d 525      31.386  11.207  -7.225  0.00  0.00     0.134 H 
ENDROOT
TORSDOF 12
ENDMDL
MODEL 78
REMARK VINA RESULT:      -5.9      3.221      6.356
REMARK  0 active torsions:
REMARK  status: ('A' for Active; 'I' for Inactive)
REMARK       I    between atoms: C1_1  and  O1_26 
REMARK       I    between atoms: C6_2  and  C5_3 
REMARK       I    between atoms: C8_4  and  C7_20 
REMARK       I    between atoms: O2_6  and  C2_15 
REMARK       I    between atoms: O4_7  and  C4_17 
REMARK       I    between atoms: O4_7  and  S_16 
REMARK       I    between atoms: C3_8  and  O3_9 
REMARK       I    between atoms: C6_10  and  C5_28 
REMARK       I    between atoms: C6_10  and  O6_14 
REMARK       I    between atoms: O3_13  and  C3_23 
REMARK       I    between atoms: O3_13  and  C1_30 
REMARK       I    between atoms: C7_20  and  N_27 
REMARK       I    between atoms: C2_24  and  N_27 
ROOT
ATOM      1  C1  ASG d 523      33.946  16.744  -4.681  0.00  0.00     0.151 C 
ATOM      2  C8  ASG d 523      34.501  18.254  -9.257  0.00  0.00    -0.003 C 
ATOM      3  O4  ASG d 523      33.463  13.527  -5.624  0.00  0.00    -0.246 OA
ATOM      4  C6  ASG d 523      32.546  13.811  -2.866  0.00  0.00     0.043 C 
ATOM      5  O5  ASG d 523      33.883  15.547  -3.875  0.00  0.00    -0.349 OA
ATOM      6  O3  ASG d 523      32.401  14.976  -7.584  0.00  0.00    -0.348 OA
ATOM      7  O6  ASG d 523      32.772  14.338  -1.573  0.00  0.00    -0.398 OA
ATOM      8  S   ASG d 523      33.171  11.934  -5.887  0.00  0.00     0.252 S 
ATOM      9  C4  ASG d 523      32.378  14.403  -5.274  0.00  0.00     0.114 C 
ATOM     10  OSB ASG d 523      34.492  11.118  -5.921  0.00  0.00    -0.572 OA
ATOM     11  C7  ASG d 523      34.689  17.211  -8.201  0.00  0.00     0.214 C 
ATOM     12  O7  ASG d 523      35.487  16.342  -8.429  0.00  0.00    -0.274 OA
ATOM     13  OSC ASG d 523      32.470  11.824  -7.127  0.00  0.00    -0.572 OA
ATOM     14  C3  ASG d 523      32.466  15.549  -6.276  0.00  0.00     0.094 C 
ATOM     15  C2  ASG d 523      33.821  16.236  -6.119  0.00  0.00     0.087 C 
ATOM     16  OSA ASG d 523      32.349  11.530  -4.777  0.00  0.00    -0.572 OA
ATOM     17  O1  ASG d 523      35.262  17.179  -4.535  0.00  0.00    -0.369 OA
ATOM     18  N   ASG d 523      33.953  17.316  -7.087  0.00  0.00    -0.349 N 
ATOM     19  C5  ASG d 523      32.581  14.947  -3.871  0.00  0.00     0.090 C 
ATOM     20  H   ASG d 523      33.223  17.493  -4.436  0.00  0.00     0.132 H 
ATOM     21  H   ASG d 523      33.768  18.963  -8.931  0.00  0.00     0.040 H 
ATOM     22  H   ASG d 523      34.169  17.789 -10.162  0.00  0.00     0.040 H 
ATOM     23  H   ASG d 523      35.429  18.755  -9.432  0.00  0.00     0.040 H 
ATOM     24  H   ASG d 523      33.308  13.098  -3.102  0.00  0.00     0.078 H 
ATOM     25  H   ASG d 523      31.592  13.326  -2.899  0.00  0.00     0.078 H 
ATOM     26  H   ASG d 523      33.637  14.775  -1.548  0.00  0.00     0.209 HD
ATOM     27  H   ASG d 523      31.433  13.904  -5.298  0.00  0.00     0.093 H 
ATOM     28  H   ASG d 523      31.678  16.256  -6.119  0.00  0.00     0.091 H 
ATOM     29  H   ASG d 523      34.614  15.545  -6.311  0.00  0.00     0.084 H 
ATOM     30  H   ASG d 523      35.869  16.461  -4.770  0.00  0.00     0.212 HD
ATOM     31  H   ASG d 523      33.480  18.162  -6.914  0.00  0.00     0.163 HD
ATOM     32  H   ASG d 523      31.818  15.647  -3.602  0.00  0.00     0.090 H 
ATOM     33  C6  GCD d 525      28.217  14.116  -7.268  0.00  0.00     0.233 C 
ATOM     34  C5  GCD d 525      29.418  14.384  -8.076  0.00  0.00     0.147 C 
ATOM     35  O6B GCD d 525      27.926  14.845  -6.296  0.00  0.00    -0.642 OA
ATOM     36  O2  GCD d 525      30.699  15.928 -10.678  0.00  0.00    -0.388 OA
ATOM     37  C3  GCD d 525      31.050  13.664  -9.869  0.00  0.00     0.084 C 
ATOM     38  O3  GCD d 525      32.121  12.791  -9.520  0.00  0.00    -0.389 OA
ATOM     39  O6A GCD d 525      27.511  13.148  -7.604  0.00  0.00    -0.642 OA
ATOM     40  C2  GCD d 525      31.529  15.126  -9.838  0.00  0.00     0.111 C 
ATOM     41  O5  GCD d 525      30.143  15.641  -7.930  0.00  0.00    -0.311 OA
ATOM     42  C4  GCD d 525      29.846  13.474  -8.962  0.00  0.00    -0.034 C 
ATOM     43  C1  GCD d 525      31.482  15.705  -8.420  0.00  0.00     0.165 C 
ATOM     44  H   GCD d 525      30.717  15.576 -11.582  0.00  0.00     0.210 HD
ATOM     45  H   GCD d 525      30.737  13.420 -10.863  0.00  0.00     0.093 H 
ATOM     46  H   GCD d 525      32.422  12.993  -8.620  0.00  0.00     0.210 HD
ATOM     47  H   GCD d 525      32.541  15.137 -10.186  0.00  0.00     0.095 H 
ATOM     48  H   GCD d 525      29.324  12.586  -9.033  0.00  0.00     0.085 H 
ATOM     49  H   GCD d 525      31.780  16.733  -8.418  0.00  0.00     0.134 H 
ENDROOT
TORSDOF 12
ENDMDL
MODEL 79
REMARK VINA RESULT:      -5.9      2.723      5.489
REMARK  0 active torsions:
REMARK  status: ('A' for Active; 'I' for Inactive)
REMARK       I    between atoms: C1_1  and  O1_26 
REMARK       I    between atoms: C6_2  and  C5_3 
REMARK       I    between atoms: C8_4  and  C7_20 
REMARK       I    between atoms: O2_6  and  C2_15 
REMARK       I    between atoms: O4_7  and  C4_17 
REMARK       I    between atoms: O4_7  and  S_16 
REMARK       I    between atoms: C3_8  and  O3_9 
REMARK       I    between atoms: C6_10  and  C5_28 
REMARK       I    between atoms: C6_10  and  O6_14 
REMARK       I    between atoms: O3_13  and  C3_23 
REMARK       I    between atoms: O3_13  and  C1_30 
REMARK       I    between atoms: C7_20  and  N_27 
REMARK       I    between atoms: C2_24  and  N_27 
ROOT
ATOM      1  C1  ASG d 523      29.793  12.608  -8.592  0.00  0.00     0.151 C 
ATOM      2  C8  ASG d 523      33.864  15.204  -9.060  0.00  0.00    -0.003 C 
ATOM      3  O4  ASG d 523      28.906  14.202  -5.738  0.00  0.00    -0.246 OA
ATOM      4  C6  ASG d 523      27.322  11.757  -5.941  0.00  0.00     0.043 C 
ATOM      5  O5  ASG d 523      28.552  12.558  -7.856  0.00  0.00    -0.349 OA
ATOM      6  O3  ASG d 523      31.563  14.119  -5.671  0.00  0.00    -0.348 OA
ATOM      7  O6  ASG d 523      26.558  10.884  -6.752  0.00  0.00    -0.398 OA
ATOM      8  S   ASG d 523      28.333  14.829  -4.335  0.00  0.00     0.252 S 
ATOM      9  C4  ASG d 523      29.520  12.902  -5.741  0.00  0.00     0.114 C 
ATOM     10  OSB ASG d 523      27.429  16.065  -4.598  0.00  0.00    -0.572 OA
ATOM     11  C7  ASG d 523      32.427  15.102  -8.655  0.00  0.00     0.214 C 
ATOM     12  O7  ASG d 523      31.831  16.133  -8.497  0.00  0.00    -0.274 OA
ATOM     13  OSC ASG d 523      29.458  15.181  -3.529  0.00  0.00    -0.572 OA
ATOM     14  C3  ASG d 523      30.872  13.111  -6.413  0.00  0.00     0.094 C 
ATOM     15  C2  ASG d 523      30.641  13.631  -7.831  0.00  0.00     0.087 C 
ATOM     16  OSA ASG d 523      27.574  13.759  -3.745  0.00  0.00    -0.572 OA
ATOM     17  O1  ASG d 523      29.446  13.213  -9.799  0.00  0.00    -0.369 OA
ATOM     18  N   ASG d 523      31.915  13.876  -8.491  0.00  0.00    -0.349 N 
ATOM     19  C5  ASG d 523      28.690  11.939  -6.571  0.00  0.00     0.090 C 
ATOM     20  H   ASG d 523      30.284  11.666  -8.715  0.00  0.00     0.132 H 
ATOM     21  H   ASG d 523      34.275  14.222  -9.167  0.00  0.00     0.040 H 
ATOM     22  H   ASG d 523      34.409  15.739  -8.310  0.00  0.00     0.040 H 
ATOM     23  H   ASG d 523      33.935  15.724  -9.992  0.00  0.00     0.040 H 
ATOM     24  H   ASG d 523      26.830  12.705  -5.871  0.00  0.00     0.078 H 
ATOM     25  H   ASG d 523      27.426  11.344  -4.960  0.00  0.00     0.078 H 
ATOM     26  H   ASG d 523      26.467  11.264  -7.639  0.00  0.00     0.209 HD
ATOM     27  H   ASG d 523      29.606  12.495  -4.756  0.00  0.00     0.093 H 
ATOM     28  H   ASG d 523      31.429  12.198  -6.445  0.00  0.00     0.091 H 
ATOM     29  H   ASG d 523      30.116  14.562  -7.806  0.00  0.00     0.084 H 
ATOM     30  H   ASG d 523      29.007  14.059  -9.623  0.00  0.00     0.212 HD
ATOM     31  H   ASG d 523      32.423  13.105  -8.833  0.00  0.00     0.163 HD
ATOM     32  H   ASG d 523      29.150  10.974  -6.639  0.00  0.00     0.090 H 
ATOM     33  C6  GCD d 525      32.369  11.498  -2.383  0.00  0.00     0.233 C 
ATOM     34  C5  GCD d 525      32.688  12.688  -3.187  0.00  0.00     0.147 C 
ATOM     35  O6B GCD d 525      32.146  10.397  -2.931  0.00  0.00    -0.642 OA
ATOM     36  O2  GCD d 525      35.030  14.523  -4.581  0.00  0.00    -0.388 OA
ATOM     37  C3  GCD d 525      33.049  15.186  -3.343  0.00  0.00     0.084 C 
ATOM     38  O3  GCD d 525      31.917  16.041  -3.485  0.00  0.00    -0.389 OA
ATOM     39  O6A GCD d 525      32.345  11.637  -1.146  0.00  0.00    -0.642 OA
ATOM     40  C2  GCD d 525      33.656  14.883  -4.723  0.00  0.00     0.111 C 
ATOM     41  O5  GCD d 525      33.008  12.560  -4.604  0.00  0.00    -0.311 OA
ATOM     42  C4  GCD d 525      32.698  13.900  -2.614  0.00  0.00    -0.034 C 
ATOM     43  C1  GCD d 525      32.926  13.729  -5.420  0.00  0.00     0.165 C 
ATOM     44  H   GCD d 525      35.510  15.243  -4.142  0.00  0.00     0.210 HD
ATOM     45  H   GCD d 525      33.775  15.699  -2.747  0.00  0.00     0.093 H 
ATOM     46  H   GCD d 525      31.242  15.597  -4.023  0.00  0.00     0.210 HD
ATOM     47  H   GCD d 525      33.557  15.767  -5.317  0.00  0.00     0.095 H 
ATOM     48  H   GCD d 525      32.452  13.963  -1.614  0.00  0.00     0.085 H 
ATOM     49  H   GCD d 525      33.382  13.502  -6.361  0.00  0.00     0.134 H 
ENDROOT
TORSDOF 12
ENDMDL
MODEL 80
REMARK VINA RESULT:      -5.8      2.911      5.813
REMARK  0 active torsions:
REMARK  status: ('A' for Active; 'I' for Inactive)
REMARK       I    between atoms: C1_1  and  O1_26 
REMARK       I    between atoms: C6_2  and  C5_3 
REMARK       I    between atoms: C8_4  and  C7_20 
REMARK       I    between atoms: O2_6  and  C2_15 
REMARK       I    between atoms: O4_7  and  C4_17 
REMARK       I    between atoms: O4_7  and  S_16 
REMARK       I    between atoms: C3_8  and  O3_9 
REMARK       I    between atoms: C6_10  and  C5_28 
REMARK       I    between atoms: C6_10  and  O6_14 
REMARK       I    between atoms: O3_13  and  C3_23 
REMARK       I    between atoms: O3_13  and  C1_30 
REMARK       I    between atoms: C7_20  and  N_27 
REMARK       I    between atoms: C2_24  and  N_27 
ROOT
ATOM      1  C1  ASG d 523      33.508  13.179  -4.542  0.00  0.00     0.151 C 
ATOM      2  C8  ASG d 523      35.717  17.237  -6.019  0.00  0.00    -0.003 C 
ATOM      3  O4  ASG d 523      30.806  13.734  -6.507  0.00  0.00    -0.246 OA
ATOM      4  C6  ASG d 523      30.082  11.724  -4.517  0.00  0.00     0.043 C 
ATOM      5  O5  ASG d 523      32.399  12.308  -4.851  0.00  0.00    -0.349 OA
ATOM      6  O3  ASG d 523      31.626  16.157  -5.780  0.00  0.00    -0.348 OA
ATOM      7  O6  ASG d 523      30.441  10.557  -3.802  0.00  0.00    -0.398 OA
ATOM      8  S   ASG d 523      29.407  13.851  -7.355  0.00  0.00     0.252 S 
ATOM      9  C4  ASG d 523      30.813  14.027  -5.099  0.00  0.00     0.114 C 
ATOM     10  OSB ASG d 523      29.539  13.185  -8.752  0.00  0.00    -0.572 OA
ATOM     11  C7  ASG d 523      34.841  16.057  -6.302  0.00  0.00     0.214 C 
ATOM     12  O7  ASG d 523      34.653  15.782  -7.457  0.00  0.00    -0.274 OA
ATOM     13  OSC ASG d 523      29.093  15.239  -7.478  0.00  0.00    -0.572 OA
ATOM     14  C3  ASG d 523      31.926  15.054  -4.921  0.00  0.00     0.094 C 
ATOM     15  C2  ASG d 523      33.245  14.434  -5.377  0.00  0.00     0.087 C 
ATOM     16  OSA ASG d 523      28.437  13.158  -6.549  0.00  0.00    -0.572 OA
ATOM     17  O1  ASG d 523      34.606  12.547  -5.123  0.00  0.00    -0.369 OA
ATOM     18  N   ASG d 523      34.326  15.402  -5.254  0.00  0.00    -0.349 N 
ATOM     19  C5  ASG d 523      31.156  12.775  -4.311  0.00  0.00     0.090 C 
ATOM     20  H   ASG d 523      33.642  13.388  -3.501  0.00  0.00     0.132 H 
ATOM     21  H   ASG d 523      35.802  17.372  -4.961  0.00  0.00     0.040 H 
ATOM     22  H   ASG d 523      35.287  18.113  -6.457  0.00  0.00     0.040 H 
ATOM     23  H   ASG d 523      36.687  17.068  -6.436  0.00  0.00     0.040 H 
ATOM     24  H   ASG d 523      29.998  11.495  -5.559  0.00  0.00     0.078 H 
ATOM     25  H   ASG d 523      29.141  12.091  -4.163  0.00  0.00     0.078 H 
ATOM     26  H   ASG d 523      31.294  10.228  -4.127  0.00  0.00     0.209 HD
ATOM     27  H   ASG d 523      29.864  14.381  -4.756  0.00  0.00     0.093 H 
ATOM     28  H   ASG d 523      32.002  15.363  -3.900  0.00  0.00     0.091 H 
ATOM     29  H   ASG d 523      33.190  14.156  -6.409  0.00  0.00     0.084 H 
ATOM     30  H   ASG d 523      34.426  12.384  -6.062  0.00  0.00     0.212 HD
ATOM     31  H   ASG d 523      34.695  15.582  -4.359  0.00  0.00     0.163 HD
ATOM     32  H   ASG d 523      31.224  12.973  -3.261  0.00  0.00     0.090 H 
ATOM     33  C6  GCD d 525      28.437  17.553  -3.286  0.00  0.00     0.233 C 
ATOM     34  C5  GCD d 525      29.477  17.793  -4.300  0.00  0.00     0.147 C 
ATOM     35  O6B GCD d 525      28.701  16.927  -2.237  0.00  0.00    -0.642 OA
ATOM     36  O2  GCD d 525      31.845  19.788  -5.399  0.00  0.00    -0.388 OA
ATOM     37  C3  GCD d 525      30.130  18.572  -6.616  0.00  0.00     0.084 C 
ATOM     38  O3  GCD d 525      30.013  17.665  -7.710  0.00  0.00    -0.389 OA
ATOM     39  O6A GCD d 525      27.303  18.009  -3.516  0.00  0.00    -0.642 OA
ATOM     40  C2  GCD d 525      31.570  18.560  -6.073  0.00  0.00     0.111 C 
ATOM     41  O5  GCD d 525      30.880  17.542  -3.996  0.00  0.00    -0.311 OA
ATOM     42  C4  GCD d 525      29.136  18.257  -5.511  0.00  0.00    -0.034 C 
ATOM     43  C1  GCD d 525      31.791  17.408  -5.086  0.00  0.00     0.165 C 
ATOM     44  H   GCD d 525      31.710  20.529  -6.009  0.00  0.00     0.210 HD
ATOM     45  H   GCD d 525      29.901  19.553  -6.976  0.00  0.00     0.093 H 
ATOM     46  H   GCD d 525      30.216  16.765  -7.407  0.00  0.00     0.210 HD
ATOM     47  H   GCD d 525      32.225  18.433  -6.909  0.00  0.00     0.095 H 
ATOM     48  H   GCD d 525      28.134  18.410  -5.705  0.00  0.00     0.085 H 
ATOM     49  H   GCD d 525      32.784  17.434  -4.687  0.00  0.00     0.134 H 
ENDROOT
TORSDOF 12
ENDMDL
MODEL 81
REMARK VINA RESULT:      -5.8      2.570      5.234
REMARK  0 active torsions:
REMARK  status: ('A' for Active; 'I' for Inactive)
REMARK       I    between atoms: C1_1  and  O1_26 
REMARK       I    between atoms: C6_2  and  C5_3 
REMARK       I    between atoms: C8_4  and  C7_20 
REMARK       I    between atoms: O2_6  and  C2_15 
REMARK       I    between atoms: O4_7  and  C4_17 
REMARK       I    between atoms: O4_7  and  S_16 
REMARK       I    between atoms: C3_8  and  O3_9 
REMARK       I    between atoms: C6_10  and  C5_28 
REMARK       I    between atoms: C6_10  and  O6_14 
REMARK       I    between atoms: O3_13  and  C3_23 
REMARK       I    between atoms: O3_13  and  C1_30 
REMARK       I    between atoms: C7_20  and  N_27 
REMARK       I    between atoms: C2_24  and  N_27 
ROOT
ATOM      1  C1  ASG d 523      31.335   9.306  -2.528  0.00  0.00     0.151 C 
ATOM      2  C8  ASG d 523      35.835  11.019  -3.109  0.00  0.00    -0.003 C 
ATOM      3  O4  ASG d 523      30.472  10.015  -5.725  0.00  0.00    -0.246 OA
ATOM      4  C6  ASG d 523      28.021   9.556  -4.205  0.00  0.00     0.043 C 
ATOM      5  O5  ASG d 523      30.154   8.928  -3.269  0.00  0.00    -0.349 OA
ATOM      6  O3  ASG d 523      32.177  11.937  -5.040  0.00  0.00    -0.348 OA
ATOM      7  O6  ASG d 523      27.330   8.780  -3.244  0.00  0.00    -0.398 OA
ATOM      8  S   ASG d 523      29.861  10.318  -7.217  0.00  0.00     0.252 S 
ATOM      9  C4  ASG d 523      30.100  10.854  -4.618  0.00  0.00     0.114 C 
ATOM     10  OSB ASG d 523      30.113   9.126  -8.181  0.00  0.00    -0.572 OA
ATOM     11  C7  ASG d 523      34.635  10.310  -3.652  0.00  0.00     0.214 C 
ATOM     12  O7  ASG d 523      34.788   9.668  -4.656  0.00  0.00    -0.274 OA
ATOM     13  OSC ASG d 523      30.482  11.509  -7.703  0.00  0.00    -0.572 OA
ATOM     14  C3  ASG d 523      31.424  11.298  -4.006  0.00  0.00     0.094 C 
ATOM     15  C2  ASG d 523      32.193  10.061  -3.546  0.00  0.00     0.087 C 
ATOM     16  OSA ASG d 523      28.451  10.508  -6.998  0.00  0.00    -0.572 OA
ATOM     17  O1  ASG d 523      31.986   8.096  -2.292  0.00  0.00    -0.369 OA
ATOM     18  N   ASG d 523      33.481  10.447  -2.987  0.00  0.00    -0.349 N 
ATOM     19  C5  ASG d 523      29.320  10.048  -3.595  0.00  0.00     0.090 C 
ATOM     20  H   ASG d 523      31.149   9.868  -1.636  0.00  0.00     0.132 H 
ATOM     21  H   ASG d 523      35.565  11.549  -2.220  0.00  0.00     0.040 H 
ATOM     22  H   ASG d 523      36.201  11.710  -3.839  0.00  0.00     0.040 H 
ATOM     23  H   ASG d 523      36.598  10.305  -2.881  0.00  0.00     0.040 H 
ATOM     24  H   ASG d 523      28.232   8.958  -5.066  0.00  0.00     0.078 H 
ATOM     25  H   ASG d 523      27.419  10.390  -4.498  0.00  0.00     0.078 H 
ATOM     26  H   ASG d 523      27.880   8.025  -2.982  0.00  0.00     0.209 HD
ATOM     27  H   ASG d 523      29.489  11.676  -4.923  0.00  0.00     0.093 H 
ATOM     28  H   ASG d 523      31.262  11.956  -3.178  0.00  0.00     0.091 H 
ATOM     29  H   ASG d 523      32.392   9.416  -4.375  0.00  0.00     0.084 H 
ATOM     30  H   ASG d 523      32.126   7.634  -3.133  0.00  0.00     0.212 HD
ATOM     31  H   ASG d 523      33.504  10.826  -2.078  0.00  0.00     0.163 HD
ATOM     32  H   ASG d 523      29.077  10.631  -2.731  0.00  0.00     0.090 H 
ATOM     33  C6  GCD d 525      29.722  15.445  -5.003  0.00  0.00     0.233 C 
ATOM     34  C5  GCD d 525      31.000  14.772  -5.284  0.00  0.00     0.147 C 
ATOM     35  O6B GCD d 525      29.144  15.286  -3.906  0.00  0.00    -0.642 OA
ATOM     36  O2  GCD d 525      34.280  14.926  -5.156  0.00  0.00    -0.388 OA
ATOM     37  C3  GCD d 525      32.816  14.130  -6.924  0.00  0.00     0.084 C 
ATOM     38  O3  GCD d 525      32.632  12.978  -7.743  0.00  0.00    -0.389 OA
ATOM     39  O6A GCD d 525      29.257  16.178  -5.895  0.00  0.00    -0.642 OA
ATOM     40  C2  GCD d 525      33.635  13.763  -5.674  0.00  0.00     0.111 C 
ATOM     41  O5  GCD d 525      31.748  14.125  -4.213  0.00  0.00    -0.311 OA
ATOM     42  C4  GCD d 525      31.491  14.763  -6.532  0.00  0.00    -0.034 C 
ATOM     43  C1  GCD d 525      32.749  13.173  -4.572  0.00  0.00     0.165 C 
ATOM     44  H   GCD d 525      34.847  15.314  -5.841  0.00  0.00     0.210 HD
ATOM     45  H   GCD d 525      33.356  14.857  -7.494  0.00  0.00     0.093 H 
ATOM     46  H   GCD d 525      32.143  12.303  -7.247  0.00  0.00     0.210 HD
ATOM     47  H   GCD d 525      34.357  13.031  -5.970  0.00  0.00     0.095 H 
ATOM     48  H   GCD d 525      30.934  15.214  -7.274  0.00  0.00     0.085 H 
ATOM     49  H   GCD d 525      33.323  12.958  -3.695  0.00  0.00     0.134 H 
ENDROOT
TORSDOF 12
ENDMDL
MODEL 82
REMARK VINA RESULT:      -5.8      2.683      3.873
REMARK  0 active torsions:
REMARK  status: ('A' for Active; 'I' for Inactive)
REMARK       I    between atoms: C1_1  and  O1_26 
REMARK       I    between atoms: C6_2  and  C5_3 
REMARK       I    between atoms: C8_4  and  C7_20 
REMARK       I    between atoms: O2_6  and  C2_15 
REMARK       I    between atoms: O4_7  and  C4_17 
REMARK       I    between atoms: O4_7  and  S_16 
REMARK       I    between atoms: C3_8  and  O3_9 
REMARK       I    between atoms: C6_10  and  C5_28 
REMARK       I    between atoms: C6_10  and  O6_14 
REMARK       I    between atoms: O3_13  and  C3_23 
REMARK       I    between atoms: O3_13  and  C1_30 
REMARK       I    between atoms: C7_20  and  N_27 
REMARK       I    between atoms: C2_24  and  N_27 
ROOT
ATOM      1  C1  ASG d 523      34.598   9.746  -6.592  0.00  0.00     0.151 C 
ATOM      2  C8  ASG d 523      32.230  11.234 -10.555  0.00  0.00    -0.003 C 
ATOM      3  O4  ASG d 523      32.232  10.983  -4.509  0.00  0.00    -0.246 OA
ATOM      4  C6  ASG d 523      34.638  10.460  -2.939  0.00  0.00     0.043 C 
ATOM      5  O5  ASG d 523      34.436   9.562  -5.169  0.00  0.00    -0.349 OA
ATOM      6  O3  ASG d 523      32.271  12.666  -6.567  0.00  0.00    -0.348 OA
ATOM      7  O6  ASG d 523      35.719   9.594  -2.649  0.00  0.00    -0.398 OA
ATOM      8  S   ASG d 523      31.219  11.547  -3.348  0.00  0.00     0.252 S 
ATOM      9  C4  ASG d 523      33.469  11.668  -4.770  0.00  0.00     0.114 C 
ATOM     10  OSB ASG d 523      30.125  10.500  -3.000  0.00  0.00    -0.572 OA
ATOM     11  C7  ASG d 523      32.217  10.694  -9.160  0.00  0.00     0.214 C 
ATOM     12  O7  ASG d 523      31.191  10.202  -8.775  0.00  0.00    -0.274 OA
ATOM     13  OSC ASG d 523      30.633  12.754  -3.837  0.00  0.00    -0.572 OA
ATOM     14  C3  ASG d 523      33.460  11.929  -6.272  0.00  0.00     0.094 C 
ATOM     15  C2  ASG d 523      33.389  10.590  -7.003  0.00  0.00     0.087 C 
ATOM     16  OSA ASG d 523      32.070  11.791  -2.214  0.00  0.00    -0.572 OA
ATOM     17  O1  ASG d 523      34.385   8.475  -7.124  0.00  0.00    -0.369 OA
ATOM     18  N   ASG d 523      33.343  10.803  -8.443  0.00  0.00    -0.349 N 
ATOM     19  C5  ASG d 523      34.643  10.769  -4.424  0.00  0.00     0.090 C 
ATOM     20  H   ASG d 523      35.531  10.178  -6.889  0.00  0.00     0.132 H 
ATOM     21  H   ASG d 523      33.196  11.640 -10.772  0.00  0.00     0.040 H 
ATOM     22  H   ASG d 523      31.492  12.003 -10.647  0.00  0.00     0.040 H 
ATOM     23  H   ASG d 523      32.012  10.446 -11.244  0.00  0.00     0.040 H 
ATOM     24  H   ASG d 523      33.716   9.985  -2.674  0.00  0.00     0.078 H 
ATOM     25  H   ASG d 523      34.738  11.366  -2.379  0.00  0.00     0.078 H 
ATOM     26  H   ASG d 523      35.622   8.774  -3.159  0.00  0.00     0.209 HD
ATOM     27  H   ASG d 523      33.563  12.565  -4.195  0.00  0.00     0.093 H 
ATOM     28  H   ASG d 523      34.336  12.464  -6.573  0.00  0.00     0.091 H 
ATOM     29  H   ASG d 523      32.496  10.065  -6.735  0.00  0.00     0.084 H 
ATOM     30  H   ASG d 523      33.528   8.138  -6.821  0.00  0.00     0.212 HD
ATOM     31  H   ASG d 523      34.177  11.039  -8.909  0.00  0.00     0.163 HD
ATOM     32  H   ASG d 523      35.579  11.230  -4.660  0.00  0.00     0.090 H 
ATOM     33  C6  GCD d 525      33.784  16.280  -4.838  0.00  0.00     0.233 C 
ATOM     34  C5  GCD d 525      32.886  15.576  -5.768  0.00  0.00     0.147 C 
ATOM     35  O6B GCD d 525      35.000  15.995  -4.786  0.00  0.00    -0.642 OA
ATOM     36  O2  GCD d 525      31.534  15.498  -8.761  0.00  0.00    -0.388 OA
ATOM     37  C3  GCD d 525      30.546  15.073  -6.583  0.00  0.00     0.084 C 
ATOM     38  O3  GCD d 525      29.781  14.072  -5.916  0.00  0.00    -0.389 OA
ATOM     39  O6A GCD d 525      33.282  17.167  -4.125  0.00  0.00    -0.642 OA
ATOM     40  C2  GCD d 525      31.243  14.470  -7.815  0.00  0.00     0.111 C 
ATOM     41  O5  GCD d 525      33.429  14.728  -6.823  0.00  0.00    -0.311 OA
ATOM     42  C4  GCD d 525      31.558  15.723  -5.656  0.00  0.00    -0.034 C 
ATOM     43  C1  GCD d 525      32.558  13.778  -7.436  0.00  0.00     0.165 C 
ATOM     44  H   GCD d 525      30.712  15.947  -9.013  0.00  0.00     0.210 HD
ATOM     45  H   GCD d 525      29.873  15.841  -6.904  0.00  0.00     0.093 H 
ATOM     46  H   GCD d 525      30.370  13.362  -5.614  0.00  0.00     0.210 HD
ATOM     47  H   GCD d 525      30.578  13.746  -8.236  0.00  0.00     0.095 H 
ATOM     48  H   GCD d 525      31.201  16.315  -4.891  0.00  0.00     0.085 H 
ATOM     49  H   GCD d 525      33.053  13.397  -8.306  0.00  0.00     0.134 H 
ENDROOT
TORSDOF 12
ENDMDL
MODEL 83
REMARK VINA RESULT:      -5.8      2.905      6.225
REMARK  0 active torsions:
REMARK  status: ('A' for Active; 'I' for Inactive)
REMARK       I    between atoms: C1_1  and  O1_26 
REMARK       I    between atoms: C6_2  and  C5_3 
REMARK       I    between atoms: C8_4  and  C7_20 
REMARK       I    between atoms: O2_6  and  C2_15 
REMARK       I    between atoms: O4_7  and  C4_17 
REMARK       I    between atoms: O4_7  and  S_16 
REMARK       I    between atoms: C3_8  and  O3_9 
REMARK       I    between atoms: C6_10  and  C5_28 
REMARK       I    between atoms: C6_10  and  O6_14 
REMARK       I    between atoms: O3_13  and  C3_23 
REMARK       I    between atoms: O3_13  and  C1_30 
REMARK       I    between atoms: C7_20  and  N_27 
REMARK       I    between atoms: C2_24  and  N_27 
ROOT
ATOM      1  C1  ASG d 523      32.578  14.159  -9.687  0.00  0.00     0.151 C 
ATOM      2  C8  ASG d 523      32.856   9.938  -7.313  0.00  0.00    -0.003 C 
ATOM      3  O4  ASG d 523      34.203  15.837  -7.235  0.00  0.00    -0.246 OA
ATOM      4  C6  ASG d 523      32.876  17.795  -8.948  0.00  0.00     0.043 C 
ATOM      5  O5  ASG d 523      33.096  15.506  -9.680  0.00  0.00    -0.349 OA
ATOM      6  O3  ASG d 523      32.817  13.955  -5.966  0.00  0.00    -0.348 OA
ATOM      7  O6  ASG d 523      32.551  18.221 -10.257  0.00  0.00    -0.398 OA
ATOM      8  S   ASG d 523      34.934  16.822  -6.144  0.00  0.00     0.252 S 
ATOM      9  C4  ASG d 523      32.772  15.869  -7.379  0.00  0.00     0.114 C 
ATOM     10  OSB ASG d 523      36.469  16.875  -6.375  0.00  0.00    -0.572 OA
ATOM     11  C7  ASG d 523      33.448  11.261  -7.685  0.00  0.00     0.214 C 
ATOM     12  O7  ASG d 523      34.625  11.404  -7.494  0.00  0.00    -0.274 OA
ATOM     13  OSC ASG d 523      34.629  16.321  -4.842  0.00  0.00    -0.572 OA
ATOM     14  C3  ASG d 523      32.334  14.417  -7.230  0.00  0.00     0.094 C 
ATOM     15  C2  ASG d 523      32.995  13.588  -8.329  0.00  0.00     0.087 C 
ATOM     16  OSA ASG d 523      34.339  18.112  -6.369  0.00  0.00    -0.572 OA
ATOM     17  O1  ASG d 523      33.355  13.503 -10.640  0.00  0.00    -0.369 OA
ATOM     18  N   ASG d 523      32.625  12.186  -8.195  0.00  0.00    -0.349 N 
ATOM     19  C5  ASG d 523      32.402  16.365  -8.766  0.00  0.00     0.090 C 
ATOM     20  H   ASG d 523      31.527  14.079  -9.870  0.00  0.00     0.132 H 
ATOM     21  H   ASG d 523      31.808   9.941  -7.532  0.00  0.00     0.040 H 
ATOM     22  H   ASG d 523      33.000   9.765  -6.267  0.00  0.00     0.040 H 
ATOM     23  H   ASG d 523      33.335   9.163  -7.872  0.00  0.00     0.040 H 
ATOM     24  H   ASG d 523      33.936  17.843  -8.807  0.00  0.00     0.078 H 
ATOM     25  H   ASG d 523      32.400  18.430  -8.231  0.00  0.00     0.078 H 
ATOM     26  H   ASG d 523      32.986  17.642 -10.903  0.00  0.00     0.209 HD
ATOM     27  H   ASG d 523      32.310  16.517  -6.665  0.00  0.00     0.093 H 
ATOM     28  H   ASG d 523      31.269  14.329  -7.297  0.00  0.00     0.091 H 
ATOM     29  H   ASG d 523      34.060  13.640  -8.246  0.00  0.00     0.084 H 
ATOM     30  H   ASG d 523      34.294  13.610 -10.422  0.00  0.00     0.212 HD
ATOM     31  H   ASG d 523      31.729  11.907  -8.492  0.00  0.00     0.163 HD
ATOM     32  H   ASG d 523      31.344  16.348  -8.924  0.00  0.00     0.090 H 
ATOM     33  C6  GCD d 525      29.921  16.207  -3.756  0.00  0.00     0.233 C 
ATOM     34  C5  GCD d 525      30.851  15.073  -3.875  0.00  0.00     0.147 C 
ATOM     35  O6B GCD d 525      29.114  16.469  -4.674  0.00  0.00    -0.642 OA
ATOM     36  O2  GCD d 525      31.384  11.878  -3.319  0.00  0.00    -0.388 OA
ATOM     37  C3  GCD d 525      32.852  13.790  -3.010  0.00  0.00     0.084 C 
ATOM     38  O3  GCD d 525      34.161  14.222  -3.373  0.00  0.00    -0.389 OA
ATOM     39  O6A GCD d 525      29.970  16.875  -2.708  0.00  0.00    -0.642 OA
ATOM     40  C2  GCD d 525      32.383  12.673  -3.958  0.00  0.00     0.111 C 
ATOM     41  O5  GCD d 525      30.680  14.081  -4.930  0.00  0.00    -0.311 OA
ATOM     42  C4  GCD d 525      31.859  14.939  -3.000  0.00  0.00    -0.034 C 
ATOM     43  C1  GCD d 525      31.790  13.243  -5.251  0.00  0.00     0.165 C 
ATOM     44  H   GCD d 525      31.743  11.508  -2.497  0.00  0.00     0.210 HD
ATOM     45  H   GCD d 525      32.898  13.404  -2.013  0.00  0.00     0.093 H 
ATOM     46  H   GCD d 525      34.145  14.577  -4.276  0.00  0.00     0.210 HD
ATOM     47  H   GCD d 525      33.240  12.079  -4.201  0.00  0.00     0.095 H 
ATOM     48  H   GCD d 525      31.967  15.664  -2.274  0.00  0.00     0.085 H 
ATOM     49  H   GCD d 525      31.432  12.458  -5.885  0.00  0.00     0.134 H 
ENDROOT
TORSDOF 12
ENDMDL
