REMARK  0 active torsions:
REMARK  status: ('A' for Active; 'I' for Inactive)
REMARK       I    between atoms: C1_1  and  O1_26 
REMARK       I    between atoms: C6_2  and  C5_3 
REMARK       I    between atoms: C8_4  and  C7_20 
REMARK       I    between atoms: O2_6  and  C2_15 
REMARK       I    between atoms: O4_7  and  C4_17 
REMARK       I    between atoms: O4_7  and  S_16 
REMARK       I    between atoms: C3_8  and  O3_9 
REMARK       I    between atoms: C6_10  and  C5_28 
REMARK       I    between atoms: C6_10  and  O6_14 
REMARK       I    between atoms: O3_13  and  C3_23 
REMARK       I    between atoms: O3_13  and  C1_30 
REMARK       I    between atoms: C7_20  and  N_27 
REMARK       I    between atoms: C2_24  and  N_27 
ROOT
ATOM      1  C1  ASG d 523      34.310  17.384  -4.897  0.00  0.00     0.151 C 
ATOM      2  C8  ASG d 523      35.646  12.740  -4.476  0.00  0.00    -0.003 C 
ATOM      3  O4  ASG d 523      31.025  16.647  -4.528  0.00  0.00    -0.246 OA
ATOM      4  C6  ASG d 523      31.231  19.340  -5.638  0.00  0.00     0.043 C 
ATOM      5  O5  ASG d 523      33.183  18.267  -4.711  0.00  0.00    -0.349 OA
ATOM      6  O3  ASG d 523      32.052  14.551  -5.802  0.00  0.00    -0.348 OA
ATOM      7  O6  ASG d 523      31.871  20.602  -5.619  0.00  0.00    -0.398 OA
ATOM      8  S   ASG d 523      29.397  16.483  -4.408  0.00  0.00     0.252 S 
ATOM      9  C4  ASG d 523      31.625  16.892  -5.812  0.00  0.00     0.114 C 
ATOM     10  OSB ASG d 523      28.932  16.558  -2.928  0.00  0.00    -0.572 OA
ATOM     11  C7  ASG d 523      34.744  13.872  -4.097  0.00  0.00     0.214 C 
ATOM     12  O7  ASG d 523      34.088  13.736  -3.100  0.00  0.00    -0.274 OA
ATOM     13  OSC ASG d 523      29.047  15.227  -4.991  0.00  0.00    -0.572 OA
ATOM     14  C3  ASG d 523      32.698  15.818  -5.951  0.00  0.00     0.094 C 
ATOM     15  C2  ASG d 523      33.706  15.980  -4.815  0.00  0.00     0.087 C 
ATOM     16  OSA ASG d 523      28.867  17.585  -5.166  0.00  0.00    -0.572 OA
ATOM     17  O1  ASG d 523      35.065  17.551  -3.737  0.00  0.00    -0.369 OA
ATOM     18  N   ASG d 523      34.728  14.946  -4.897  0.00  0.00    -0.349 N 
ATOM     19  C5  ASG d 523      32.281  18.261  -5.825  0.00  0.00     0.090 C 
ATOM     20  H   ASG d 523      34.870  17.548  -5.794  0.00  0.00     0.132 H 
ATOM     21  H   ASG d 523      36.170  12.987  -5.376  0.00  0.00     0.040 H 
ATOM     22  H   ASG d 523      35.063  11.857  -4.634  0.00  0.00     0.040 H 
ATOM     23  H   ASG d 523      36.350  12.567  -3.690  0.00  0.00     0.040 H 
ATOM     24  H   ASG d 523      30.716  19.184  -4.713  0.00  0.00     0.078 H 
ATOM     25  H   ASG d 523      30.525  19.303  -6.441  0.00  0.00     0.078 H 
ATOM     26  H   ASG d 523      32.509  20.630  -4.889  0.00  0.00     0.209 HD
ATOM     27  H   ASG d 523      30.907  16.865  -6.604  0.00  0.00     0.093 H 
ATOM     28  H   ASG d 523      33.196  15.894  -6.895  0.00  0.00     0.091 H 
ATOM     29  H   ASG d 523      33.222  15.868  -3.868  0.00  0.00     0.084 H 
ATOM     30  H   ASG d 523      34.506  17.390  -2.961  0.00  0.00     0.212 HD
ATOM     31  H   ASG d 523      35.439  15.041  -5.571  0.00  0.00     0.163 HD
ATOM     32  H   ASG d 523      32.785  18.451  -6.750  0.00  0.00     0.090 H 
ATOM     33  C6  GCD d 525      30.205  14.760  -9.660  0.00  0.00     0.233 C 
ATOM     34  C5  GCD d 525      30.715  13.984  -8.518  0.00  0.00     0.147 C 
ATOM     35  O6B GCD d 525      30.894  15.667 -10.174  0.00  0.00    -0.642 OA
ATOM     36  O2  GCD d 525      32.376  11.334  -7.511  0.00  0.00    -0.388 OA
ATOM     37  C3  GCD d 525      30.319  12.310  -6.664  0.00  0.00     0.084 C 
ATOM     38  O3  GCD d 525      29.759  12.761  -5.433  0.00  0.00    -0.389 OA
ATOM     39  O6A GCD d 525      29.075  14.464 -10.089  0.00  0.00    -0.642 OA
ATOM     40  C2  GCD d 525      31.853  12.259  -6.558  0.00  0.00     0.111 C 
ATOM     41  O5  GCD d 525      32.118  14.071  -8.131  0.00  0.00    -0.311 OA
ATOM     42  C4  GCD d 525      29.889  13.180  -7.833  0.00  0.00    -0.034 C 
ATOM     43  C1  GCD d 525      32.483  13.631  -6.823  0.00  0.00     0.165 C 
ATOM     44  H   GCD d 525      31.988  10.458  -7.358  0.00  0.00     0.210 HD
ATOM     45  H   GCD d 525      29.949  11.324  -6.852  0.00  0.00     0.093 H 
ATOM     46  H   GCD d 525      30.080  13.656  -5.240  0.00  0.00     0.210 HD
ATOM     47  H   GCD d 525      32.094  11.952  -5.562  0.00  0.00     0.095 H 
ATOM     48  H   GCD d 525      28.898  13.150  -8.118  0.00  0.00     0.085 H 
ATOM     49  H   GCD d 525      33.551  13.574  -6.785  0.00  0.00     0.134 H 
ENDROOT
TORSDOF 12
